@<TRIPOS>MOLECULE
mol
37500 30000
SMALL
USER_CHARGES


@<TRIPOS>ATOM
1 C 90.16984386944367 80.41309378328181 73.53093806725369 C 0.0 **** -0.24
2 H 90.31991154380182 79.35238852184423 73.33086787438253 H 0.0 **** 0.06
3 H 90.91877343206198 80.99394070945907 72.99302227585619 H 0.0 **** 0.06
4 H 90.26560366276266 80.59758772874412 74.60078295918584 H 0.0 **** 0.06
5 H 89.17412562379019 80.70746271779008 73.1987872238189 H 0.0 **** 0.06
6 C 86.16451541733548 61.94896182095505 71.79146311513247 C 0.0 **** -0.24
7 H 86.24269499239261 60.94533720838632 71.37405847967379 H 0.0 **** 0.06
8 H 87.01959151088501 62.14134284347307 72.44043425094218 H 0.0 **** 0.06
9 H 85.24404673767526 62.03072555271524 72.37025254388458 H 0.0 **** 0.06
10 H 86.15096016164556 62.67887562924099 70.98157782385027 H 0.0 **** 0.06
11 C 81.68697060004163 60.59425716909223 113.06200179111059 C 0.0 **** -0.24
12 H 82.59044944284136 60.09060318724761 113.40526363523165 H 0.0 **** 0.06
13 H 80.96091261704058 60.63130799409913 113.87511136346384 H 0.0 **** 0.06
14 H 81.26219498712356 60.04540637087979 112.22149923760364 H 0.0 **** 0.06
15 H 81.93336811118661 61.6082965281135 112.74757613208234 H 0.0 **** 0.06
16 C 83.74023749083767 131.35121149656862 6.11248042337494 C 0.0 **** -0.24
17 H 84.74709433669233 131.58569298089324 6.457743772435606 H 0.0 **** 0.06
18 H 83.77895457711685 131.02632654779543 5.072649750544265 H 0.0 **** 0.06
19 H 83.11269550160654 132.23924395333555 6.193926804326924 H 0.0 **** 0.06
20 H 83.32249043728194 130.55359672934085 6.727309808391595 H 0.0 **** 0.06
21 C 57.72495524822321 124.48764700338732 128.52266284950076 C 0.0 **** -0.24
22 H 56.83368826674035 125.11419572160446 128.55222497011127 H 0.0 **** 0.06
23 H 58.29598939644106 124.62378860514593 129.44168220678796 H 0.0 **** 0.06
24 H 58.33889804476098 124.76961276096247 127.6679649133477 H 0.0 **** 0.06
25 H 57.43061371070931 123.44229793424225 128.4298380661423 H 0.0 **** 0.06
26 C 110.29389952442818 32.032619672691766 56.88026412355846 C 0.0 **** -0.24
27 H 110.95596829571781 32.792411708509206 56.462783405476145 H 0.0 **** 0.06
28 H 110.51878240590963 31.06698120116893 56.426853584032784 H 0.0 **** 0.06
29 H 109.25855435588193 32.30009801491337 56.6728618429683 H 0.0 **** 0.06
30 H 110.44569483788143 31.973329755732415 57.957586223796014 H 0.0 **** 0.06
31 C 58.96440019583342 132.4863318442375 93.8971493782175 C 0.0 **** -0.24
32 H 58.180199871641975 131.73770369233182 94.01300203274938 H 0.0 **** 0.06
33 H 58.802241749250214 133.29532286531241 94.60919517204901 H 0.0 **** 0.06
34 H 58.94061538224406 132.8834466657538 92.882661757379 H 0.0 **** 0.06
35 H 59.93503583623247 132.0260874197844 94.08478901831855 H 0.0 **** 0.06
36 C 59.63820400471077 87.86514880713867 134.31056823833697 C 0.0 **** -0.24
37 H 58.61130568266907 87.60115161341142 134.0573087045592 H 0.0 **** 0.06
38 H 59.93883145473927 88.74349408726681 133.73940646915042 H 0.0 **** 0.06
39 H 60.29759640175514 87.03087859568964 134.0693152905204 H 0.0 **** 0.06
40 H 59.70425859017412 88.08362509505173 135.3767230097748 H 0.0 **** 0.06
41 C 101.9268701034486 124.67780320330925 5.871203395093772 C 0.0 **** -0.24
42 H 102.96361383843885 124.91986934128245 6.101147717682437 H 0.0 **** 0.06
43 H 101.81885606470016 123.59805837757956 5.766665572154778 H 0.0 **** 0.06
44 H 101.6380210690611 125.1645634379784 4.939246953702849 H 0.0 **** 0.06
45 H 101.28468060428395 125.03048290944426 6.67850677899861 H 0.0 **** 0.06
46 C 7.127156049563126 59.73291955050394 44.877071608485636 C 0.0 **** -0.24
47 H 7.4445402346254355 59.05027329992387 44.0884700221377 H 0.0 **** 0.06
48 H 7.989549440120584 60.29026457500538 45.2429735513802 H 0.0 **** 0.06
49 H 6.688549674321138 59.16228618055658 45.69543708235858 H 0.0 **** 0.06
50 H 6.386862727486687 60.42685110670948 44.48030240177266 H 0.0 **** 0.06
51 C 133.852715221866 104.3566981277097 7.144244966364198 C 0.0 **** -0.24
52 H 134.21055894337147 104.75204167781527 6.193552895778652 H 0.0 **** 0.06
53 H 132.79185672677335 104.5804984172527 7.253587163188712 H 0.0 **** 0.06
54 H 134.40876090096143 104.81873507392683 7.961051066569411 H 0.0 **** 0.06
55 H 134.00240644747413 103.27727442979702 7.16807940648556 H 0.0 **** 0.06
56 C 85.06531747937862 71.68275909211586 90.60979925834673 C 0.0 **** -0.24
57 H 85.23047424892258 71.456199079873 89.5558851624258 H 0.0 **** 0.06
58 H 85.7881993692099 71.13637259066022 91.21558438924865 H 0.0 **** 0.06
59 H 84.05530780998107 71.38504427599091 90.89023353788525 H 0.0 **** 0.06
60 H 85.18796907067353 72.75338792674839 90.7733062729435 H 0.0 **** 0.06
61 C 40.16253717235631 104.8869816392912 49.48016087847719 C 0.0 **** -0.24
62 H 41.155495273803936 104.64796535612508 49.861187773914764 H 0.0 **** 0.06
63 H 39.42190872477413 104.26554611561068 49.98201382837607 H 0.0 **** 0.06
64 H 40.130707456778694 104.69737026085207 48.407480854747405 H 0.0 **** 0.06
65 H 39.94522244987461 105.93834528915025 49.670365715146886 H 0.0 **** 0.06
66 C 75.06969571131128 40.00041662837336 75.86560908526134 C 0.0 **** -0.24
67 H 74.68054940535467 39.59778734482404 76.80112653774214 H 0.0 **** 0.06
68 H 75.74928987371118 39.276439687501465 75.41420427574734 H 0.0 **** 0.06
69 H 75.60593351208917 40.92837540203814 76.06475126347783 H 0.0 **** 0.06
70 H 74.24262187992758 40.196574760421385 75.18363994831554 H 0.0 **** 0.06
71 C 122.12545452701875 86.95394743456245 58.30865564514198 C 0.0 **** -0.24
72 H 122.6059103327305 87.03731460852282 59.28354651054053 H 0.0 **** 0.06
73 H 122.8881926358107 86.86961671194149 57.53459171605175 H 0.0 **** 0.06
74 H 121.51760391766078 87.83990583656735 58.12585686127858 H 0.0 **** 0.06
75 H 121.49095668231831 86.06794408873672 58.29114540412206 H 0.0 **** 0.06
76 C 13.228451369902501 109.11009734350944 15.17937251006984 C 0.0 **** -0.24
77 H 13.533896179585952 109.17811921464977 16.224122535902815 H 0.0 **** 0.06
78 H 13.322642825498235 108.07891060863284 14.839352015356631 H 0.0 **** 0.06
79 H 13.866285753318579 109.7533114340163 14.572229985737849 H 0.0 **** 0.06
80 H 12.19138251696154 109.43169787429062 15.083240526280008 H 0.0 **** 0.06
81 C 30.732382454331216 126.68166206034789 6.2124040195802195 C 0.0 **** -0.24
82 H 31.769197015109356 126.87884367689372 6.488228463486735 H 0.0 **** 0.06
83 H 30.069784018983427 127.2758890654735 6.841197797298491 H 0.0 **** 0.06
84 H 30.515939557166803 125.62261109821111 6.35234897283425 H 0.0 **** 0.06
85 H 30.57866459920146 126.94866028248845 5.166773186260627 H 0.0 **** 0.06
86 C 47.33825694858831 106.97183741471247 33.24641065470708 C 0.0 **** -0.24
87 H 46.583346273391925 107.67692269722397 33.593377003405635 H 0.0 **** 0.06
88 H 46.85504009277571 106.0418751496237 32.94549911708689 H 0.0 **** 0.06
89 H 48.044406890949446 106.77134790474253 34.052569638102966 H 0.0 **** 0.06
90 H 47.87021163078788 107.39789945570863 32.39578299600518 H 0.0 **** 0.06
91 C 117.03251178185158 83.31002830311202 59.88987271802529 C 0.0 **** -0.24
92 H 117.36790316737887 84.33426192373616 59.726247595869665 H 0.0 **** 0.06
93 H 116.12932217772124 83.12623475331105 59.30638525515252 H 0.0 **** 0.06
94 H 116.81772941481051 83.16281193298715 60.94798797877337 H 0.0 **** 0.06
95 H 117.81320231840812 82.61736087571526 59.57741451747299 H 0.0 **** 0.06
96 C 33.6052037252932 134.45753857380524 68.82923591413228 C 0.0 **** -0.24
97 H 33.576442056510764 135.19834250805798 68.02918376999175 H 0.0 **** 0.06
98 H 33.98293008109377 133.51366571998386 68.4359422518618 H 0.0 **** 0.06
99 H 32.600024115576254 134.31131237208766 69.22493393438741 H 0.0 **** 0.06
100 H 34.26132891296829 134.80938699148356 69.62476872157131 H 0.0 **** 0.06
101 C 61.72134562993088 116.47524676880582 43.86326323230827 C 0.0 **** -0.24
102 H 60.668570694327855 116.36361435795095 44.12051826044984 H 0.0 **** 0.06
103 H 62.33616439501475 116.0373588663056 44.64930401361738 H 0.0 **** 0.06
104 H 61.9594560025115 117.53460174515675 43.762082227468795 H 0.0 **** 0.06
105 H 61.919749005322444 115.96667837252932 42.92000116246078 H 0.0 **** 0.06
106 C 6.67540878280613 94.55552654605111 55.674072022616485 C 0.0 **** -0.24
107 H 7.09227201194696 94.96326313728355 56.595666315402354 H 0.0 **** 0.06
108 H 7.472444294556652 94.10251055463178 55.08444928873914 H 0.0 **** 0.06
109 H 6.208747376856223 95.35608648520761 55.10186586697836 H 0.0 **** 0.06
110 H 5.927909075985667 93.79962260426925 55.917229451371725 H 0.0 **** 0.06
111 C 75.11433277233803 61.32807934731346 91.08946441880896 C 0.0 **** -0.24
112 H 75.77256787775616 60.56000047596328 90.68301827254766 H 0.0 **** 0.06
113 H 75.55750178170126 62.30991347295347 90.9227009768738 H 0.0 **** 0.06
114 H 74.98287913609784 61.16522408673171 92.15907142901484 H 0.0 **** 0.06
115 H 74.1458250081717 61.27735793577912 90.59136790428524 H 0.0 **** 0.06
116 C 131.78429658493312 69.47802236692115 124.31794015047478 C 0.0 **** -0.24
117 H 132.62851111372947 69.83518010780423 124.90761907473706 H 0.0 **** 0.06
118 H 132.12955736567642 69.19818302822861 123.32161535611971 H 0.0 **** 0.06
119 H 131.03920702400842 70.26914534253592 124.23492787859442 H 0.0 **** 0.06
120 H 131.34081900128862 68.6103678121184 124.80546371426288 H 0.0 **** 0.06
121 C 133.89335151074732 64.55452581434986 132.44557167774934 C 0.0 **** -0.24
122 H 132.96987692550857 64.18646555483429 131.99834197587884 H 0.0 **** 0.06
123 H 133.79105850959235 64.5673629526533 133.53113349387434 H 0.0 **** 0.06
124 H 134.09267285971288 65.56501057955734 132.08758754294257 H 0.0 **** 0.06
125 H 134.7192606265046 63.900454294217525 132.16576701974807 H 0.0 **** 0.06
126 C 24.0766028060512 34.54573818755449 120.49281123899357 C 0.0 **** -0.24
127 H 23.772546020484697 33.503980666615576 120.59728049138658 H 0.0 **** 0.06
128 H 23.851969883949437 34.88976753381644 119.48282660676446 H 0.0 **** 0.06
129 H 25.147231909364905 34.63250405371906 120.67679506254889 H 0.0 **** 0.06
130 H 23.53244965079716 35.15643820814702 121.21416756635234 H 0.0 **** 0.06
131 C 43.40022508449334 6.847155442365278 23.134346919384228 C 0.0 **** -0.24
132 H 43.15169595232917 6.010861338036477 23.787956524056128 H 0.0 **** 0.06
133 H 42.860260022522645 7.736021978556295 23.46122624388002 H 0.0 **** 0.06
134 H 43.11581559974102 6.604746674023346 22.110257904662433 H 0.0 **** 0.06
135 H 44.47290896275393 7.036229385445381 23.17855568411062 H 0.0 **** 0.06
136 C 0.4903593071163961 66.44958021442405 127.71147373466164 C 0.0 **** -0.24
137 H 0.6062498691459766 66.76405434777685 128.74783292838367 H 0.0 **** 0.06
138 H 0.9393571594298145 67.19441415216482 127.05307075955744 H 0.0 **** 0.06
139 H -0.5692424559727449 66.34928155002649 127.47788368789645 H 0.0 **** 0.06
140 H 0.9867724728073242 65.49041481393948 127.5656630836553 H 0.0 **** 0.06
141 C 76.67425237224076 133.38420331312352 60.83330751437319 C 0.0 **** -0.24
142 H 77.25438024815881 134.19589887103072 61.27227223965113 H 0.0 **** 0.06
143 H 76.37723166769128 132.68556707606461 61.61605281967519 H 0.0 **** 0.06
144 H 77.27949022059153 132.86451614962937 60.09175146321263 H 0.0 **** 0.06
145 H 75.78401823119734 133.79278480273683 60.35393766180738 H 0.0 **** 0.06
146 C 109.84365292147649 112.91876114362694 15.022205202999487 C 0.0 **** -0.24
147 H 109.46963142536421 113.43939325546424 15.903521926052633 H 0.0 **** 0.06
148 H 109.39105812332852 113.34887848293644 14.127790777484364 H 0.0 **** 0.06
149 H 109.58596531197708 111.86203954871624 15.08748607753546 H 0.0 **** 0.06
150 H 110.92664101686819 113.0267603550983 14.969622127278399 H 0.0 **** 0.06
151 C 4.754180899559856 89.1795755474588 43.188327690601824 C 0.0 **** -0.24
152 H 5.302132972737354 89.71786023819095 43.961028881994025 H 0.0 **** 0.06
153 H 4.936739604428908 88.10916625528532 43.29233448192204 H 0.0 **** 0.06
154 H 5.090583955345778 89.51160868971616 42.20607159124296 H 0.0 **** 0.06
155 H 3.6876361213934388 89.37797964331205 43.293746416579225 H 0.0 **** 0.06
156 C 2.398038668134575 28.550625766294928 47.55726208593791 C 0.0 **** -0.24
157 H 2.3812735110366248 28.74390165686154 48.62940963956106 H 0.0 **** 0.06
158 H 3.087698934974867 27.732709618042406 47.34657038074505 H 0.0 **** 0.06
159 H 2.724883617377145 29.44742261458609 47.0311367742562 H 0.0 **** 0.06
160 H 1.3973481988399499 28.277581930467193 47.22248797425328 H 0.0 **** 0.06
161 C 49.942132476221445 45.91483397287894 33.937256324674635 C 0.0 **** -0.24
162 H 50.127264711080954 46.895531393114226 33.50079027194715 H 0.0 **** 0.06
163 H 48.97959885648956 45.537831426757975 33.59027618919677 H 0.0 **** 0.06
164 H 49.930150192415226 45.99832681838744 35.02432645372505 H 0.0 **** 0.06
165 H 50.73190731470751 45.22684559333064 33.635117667945394 H 0.0 **** 0.06
166 C 134.1039965086266 115.345704150856 49.706153500694654 C 0.0 **** -0.24
167 H 134.301572551976 114.4487068998383 49.118204729773254 H 0.0 **** 0.06
168 H 134.30681634375838 115.14066458626704 50.75782598002431 H 0.0 **** 0.06
169 H 133.06104137571205 115.63588148289034 49.58664332421853 H 0.0 **** 0.06
170 H 134.7482300554824 116.1542308265054 49.362239610351594 H 0.0 **** 0.06
171 C 16.481456077017377 37.561362674647214 16.192093294743586 C 0.0 **** -0.24
172 H 17.12053638289938 36.71097497785138 15.954467144778164 H 0.0 **** 0.06
173 H 16.177045166158706 37.5068344070375 17.237384514996847 H 0.0 **** 0.06
174 H 15.597580561529035 37.54133255875297 15.554702582360306 H 0.0 **** 0.06
175 H 17.031269998293112 38.48741307060831 16.02246015270549 H 0.0 **** 0.06
176 C 107.40116826892779 16.447643912314852 36.455355320857954 C 0.0 **** -0.24
177 H 107.24422144386801 17.49723346651877 36.706404278193155 H 0.0 **** 0.06
178 H 106.44680732600261 15.990361313365092 36.19362857105586 H 0.0 **** 0.06
179 H 107.82778310811761 15.92961339892691 37.31425533034614 H 0.0 **** 0.06
180 H 108.08414685384867 16.374665552280703 35.61002734141217 H 0.0 **** 0.06
181 C 74.65852274155822 119.67428707742701 62.359131201707214 C 0.0 **** -0.24
182 H 75.36037233601296 119.04147541595434 62.90372525265782 H 0.0 **** 0.06
183 H 73.7242336983129 119.13333840004591 62.2070700328905 H 0.0 **** 0.06
184 H 75.08556145351416 119.94143859292888 61.3927275345099 H 0.0 **** 0.06
185 H 74.46531570638808 120.57949993116873 62.934057070553905 H 0.0 **** 0.06
186 C 105.52227495208243 88.75094807705909 104.64742837427062 C 0.0 **** -0.24
187 H 104.59874969009377 88.6998589714461 104.06959179189577 H 0.0 **** 0.06
188 H 105.33777920923717 88.38615047005246 105.65851697054916 H 0.0 **** 0.06
189 H 105.86671681952126 89.78351450867441 104.69128454546191 H 0.0 **** 0.06
190 H 106.283579639296 88.13368323114435 104.1710164512956 H 0.0 **** 0.06
191 C 13.577719263961697 32.82830546257418 67.47094651172614 C 0.0 **** -0.24
192 H 14.436809477891394 32.37771819978812 67.96752698270029 H 0.0 **** 0.06
193 H 13.368568207476521 32.287509728826194 66.54706938337995 H 0.0 **** 0.06
194 H 13.795663941966176 33.87131104027344 67.24152650596335 H 0.0 **** 0.06
195 H 12.70896659710392 32.774403611166406 68.12788753444693 H 0.0 **** 0.06
196 C 53.87185643361539 77.35697011014017 49.71684816026966 C 0.0 **** -0.24
197 H 53.9050731663645 76.28090311665989 49.544425521934514 H 0.0 **** 0.06
198 H 53.14174964036562 77.57715455011535 50.4965506729086 H 0.0 **** 0.06
199 H 53.58267964082685 77.86305631223456 48.794690530595204 H 0.0 **** 0.06
200 H 54.85568361764564 77.70540700191408 50.0290545115229 H 0.0 **** 0.06
201 C 50.189913239238706 33.47919775119783 59.8948387079173 C 0.0 **** -0.24
202 H 49.210010898765546 33.46722553645148 59.41773481421457 H 0.0 **** 0.06
203 H 50.66244002061637 34.44735653581617 59.728787287051674 H 0.0 **** 0.06
204 H 50.81181340031594 32.69281591131008 59.4671240213564 H 0.0 **** 0.06
205 H 50.07399339073008 33.3091624599856 60.96569383146213 H 0.0 **** 0.06
206 C 130.2151587497512 86.5531846391799 27.570221018195866 C 0.0 **** -0.24
207 H 130.04786052820077 85.62394435882908 28.11561253495529 H 0.0 **** 0.06
208 H 129.43700724055645 86.67791231566201 26.817965579802262 H 0.0 **** 0.06
209 H 131.18999667532665 86.51733287557246 27.08331470466618 H 0.0 **** 0.06
210 H 130.1874225391433 87.39141635662799 28.266383606696934 H 0.0 **** 0.06
211 C 87.93895597410221 67.99556240349625 83.9431986735429 C 0.0 **** -0.24
212 H 87.61885135842448 67.28252253423102 83.18334918239387 H 0.0 **** 0.06
213 H 87.12348727956362 68.16849265089385 84.64492508965732 H 0.0 **** 0.06
214 H 88.21416795902064 68.93592160331048 83.46578586160199 H 0.0 **** 0.06
215 H 88.80010597540823 67.59497849336364 84.47821855810521 H 0.0 **** 0.06
216 C 54.22558579892859 20.205681304822505 89.06989003986331 C 0.0 **** -0.24
217 H 54.54760330838275 19.16584116689951 89.12256124722 H 0.0 **** 0.06
218 H 54.485655543877726 20.714641786997696 89.99810392922713 H 0.0 **** 0.06
219 H 53.14576729195562 20.244642285741577 88.92288955118407 H 0.0 **** 0.06
220 H 54.72354538917946 20.697858489151066 88.23358029000757 H 0.0 **** 0.06
221 C 99.05534578928177 36.65653787036152 88.53777446433827 C 0.0 **** -0.24
222 H 99.99021885481086 37.15749717910262 88.28684384553655 H 0.0 **** 0.06
223 H 98.82922095671339 35.90847199358711 87.77742382059897 H 0.0 **** 0.06
224 H 98.24965455075936 37.389932409531156 88.57724801659887 H 0.0 **** 0.06
225 H 99.15249773565192 36.17114020581036 89.50850338334327 H 0.0 **** 0.06
226 C 85.46648248712657 96.4959529295163 58.25873958257199 C 0.0 **** -0.24
227 H 86.45851541937647 96.51867864951433 58.70874204989667 H 0.0 **** 0.06
228 H 84.78008631277481 97.08967840928909 58.86246833789431 H 0.0 **** 0.06
229 H 85.11309672520782 95.46587873543544 58.21248249128104 H 0.0 **** 0.06
230 H 85.51510715033757 96.90848734555527 57.2510456535295 H 0.0 **** 0.06
231 C 108.92837552492395 86.86923061704665 52.78766529582427 C 0.0 **** -0.24
232 H 108.63562736969664 87.62350730470013 52.05714406622482 H 0.0 **** 0.06
233 H 108.90208074358473 87.30346988017666 53.78724967124501 H 0.0 **** 0.06
234 H 109.93861662298059 86.52376167490338 52.56821098312034 H 0.0 **** 0.06
235 H 108.23715067077255 86.02755156864569 52.737698601031354 H 0.0 **** 0.06
236 C 44.22487466688932 23.609475703976656 65.99066408468539 C 0.0 **** -0.24
237 H 43.21971698653155 23.36009301781074 66.32705115860675 H 0.0 **** 0.06
238 H 44.212437880194045 23.799292935711257 64.9167162862484 H 0.0 **** 0.06
239 H 44.89722010672227 22.778615393141237 66.20540074476321 H 0.0 **** 0.06
240 H 44.57224520207137 24.501105282171437 66.51326383576601 H 0.0 **** 0.06
241 C 135.4168815511642 16.18988617094346 77.85728672195188 C 0.0 **** -0.24
242 H 134.48558714073033 15.622875733318267 77.8496721273327 H 0.0 **** 0.06
243 H 135.21768395245218 17.219303333407048 77.5554559839843 H 0.0 **** 0.06
244 H 136.12307859976735 15.73721534593669 77.1627071223368 H 0.0 **** 0.06
245 H 135.83796806979046 16.181753039029893 78.86237827701137 H 0.0 **** 0.06
246 C 80.19993818742086 71.66077070804653 97.26949969254844 C 0.0 **** -0.24
247 H 80.2083756084466 70.65366823707922 97.68646310650216 H 0.0 **** 0.06
248 H 80.2132101493321 71.60328140414686 96.1810398161441 H 0.0 **** 0.06
249 H 81.07739184312254 72.20512316528004 97.61676974277987 H 0.0 **** 0.06
250 H 79.29798734779513 72.18050683532363 97.59471371918636 H 0.0 **** 0.06
251 C 70.72478854367733 76.66693637702667 19.70011247696621 C 0.0 **** -0.24
252 H 70.25145053005316 76.93642828407778 20.643721639190005 H 0.0 **** 0.06
253 H 71.73616710561734 77.07222412774848 19.672775767923838 H 0.0 **** 0.06
254 H 70.14526188613162 77.07901366505058 18.872778615593518 H 0.0 **** 0.06
255 H 70.76471427832251 75.58167173904877 19.610158963956394 H 0.0 **** 0.06
256 C 29.407219129703016 108.14800264193133 9.855318217555805 C 0.0 **** -0.24
257 H 29.66118080113869 108.16376205462939 10.914498609624445 H 0.0 **** 0.06
258 H 30.26077613457624 108.49365091116204 9.272041454927233 H 0.0 **** 0.06
259 H 28.554844829724253 108.80317090057798 9.676439340274442 H 0.0 **** 0.06
260 H 29.151882056699222 107.13070105493046 9.55763289624548 H 0.0 **** 0.06
261 C 27.653981159519105 98.69542570919498 79.74029575146051 C 0.0 **** -0.24
262 H 27.266884258203675 98.85666841298176 80.74616692559766 H 0.0 **** 0.06
263 H 27.066001575100586 97.92388377367753 79.24409511600317 H 0.0 **** 0.06
264 H 28.694615860612032 98.37907562818941 79.7976631893867 H 0.0 **** 0.06
265 H 27.587265465302153 99.62421996112803 79.17301332319596 H 0.0 **** 0.06
266 C 2.1043044677103353 24.06972962625875 68.82830028843965 C 0.0 **** -0.24
267 H 2.0225530131698974 23.01817339644299 69.1043189145915 H 0.0 **** 0.06
268 H 2.691003841573263 24.16008421544649 67.9139349508396 H 0.0 **** 0.06
269 H 2.595171660743233 24.618070371043274 69.6317023303951 H 0.0 **** 0.06
270 H 1.1077272880729652 24.48091511553011 68.66402755084127 H 0.0 **** 0.06
271 C 55.96770455748893 110.8413764500057 30.52928164457863 C 0.0 **** -0.24
272 H 55.085551677085675 111.39151055818297 30.856388367691473 H 0.0 **** 0.06
273 H 56.85095717870769 111.24540936627096 31.024166762745843 H 0.0 **** 0.06
274 H 56.07818306906768 110.94203996083027 29.44953981360173 H 0.0 **** 0.06
275 H 55.854979817397236 109.78839867458359 30.786528565046197 H 0.0 **** 0.06
276 C 79.36429380782232 75.83708078771436 70.94415522813102 C 0.0 **** -0.24
277 H 78.8170509296877 76.77157753944643 70.82477740542635 H 0.0 **** 0.06
278 H 79.70039679809307 75.74174893332886 71.97643312598575 H 0.0 **** 0.06
279 H 80.2274723302466 75.83424980710573 70.2786337173867 H 0.0 **** 0.06
280 H 78.71106497436057 75.00008542503005 70.69570612420023 H 0.0 **** 0.06
281 C 33.399583873717376 50.788547857995184 32.41933611471516 C 0.0 **** -0.24
282 H 33.08397095909278 51.10124937704917 33.414876836207185 H 0.0 **** 0.06
283 H 32.53605342121551 50.42500082133924 31.86249703276861 H 0.0 **** 0.06
284 H 34.13924145863251 49.99189803352017 32.506300658754924 H 0.0 **** 0.06
285 H 33.840631902298554 51.636836901106335 31.895059051960096 H 0.0 **** 0.06
286 C 67.81016608979098 80.45842766570674 72.40713115418211 C 0.0 **** -0.24
287 H 68.76147808272975 80.1619609537005 72.84799621637352 H 0.0 **** 0.06
288 H 67.42143877364353 79.64115305371998 71.79853653881999 H 0.0 **** 0.06
289 H 67.95947505885088 81.33925253760826 71.78124017224887 H 0.0 **** 0.06
290 H 67.09903349507357 80.69144458969224 73.19890482925982 H 0.0 **** 0.06
291 C 102.17288377573007 20.099890870751153 91.96487417508038 C 0.0 **** -0.24
292 H 103.14096932944904 20.554602259189323 91.75434868098978 H 0.0 **** 0.06
293 H 102.1623828651436 19.727630076809135 92.98974916173145 H 0.0 **** 0.06
294 H 102.00417802339902 19.27206522593184 91.27526617845746 H 0.0 **** 0.06
295 H 101.38703128698369 20.844385048996116 91.83987690883967 H 0.0 **** 0.06
296 C 82.65742149330079 5.501038968773894 101.46789965224843 C 0.0 **** -0.24
297 H 82.50035717311239 6.444212914213292 101.99083344485086 H 0.0 **** 0.06
298 H 83.42967937678792 5.63061356302352 100.70990015967675 H 0.0 **** 0.06
299 H 81.72750310652921 5.191674635855168 100.99001514848186 H 0.0 **** 0.06
300 H 82.97149244995218 4.737956978176008 102.18015619186411 H 0.0 **** 0.06
301 C 14.730803759233424 58.09062568796138 73.56527955135586 C 0.0 **** -0.24
302 H 15.247442281800602 57.72341295172157 72.67726231691435 H 0.0 **** 0.06
303 H 15.448147661134556 58.211884826687 74.37739656434614 H 0.0 **** 0.06
304 H 13.963671495270773 57.37468407388437 73.86064672303507 H 0.0 **** 0.06
305 H 14.266778909300001 59.05085849873069 73.34400852448633 H 0.0 **** 0.06
306 C 92.09668312541629 1.5113733760997832 115.89433164862643 C 0.0 **** -0.24
307 H 93.18347232774687 1.4362515875445183 115.88747977908093 H 0.0 **** 0.06
308 H 91.73478900086911 1.6386194389889681 114.87326249333361 H 0.0 **** 0.06
309 H 91.79465865250711 2.3679504101603754 116.49604338462706 H 0.0 **** 0.06
310 H 91.67190189673761 0.6014075954500697 116.31888232437899 H 0.0 **** 0.06
311 C 27.941649544325166 119.73206759125668 124.44561267818254 C 0.0 **** -0.24
312 H 27.037308142621335 119.2168208321923 124.120596513234 H 0.0 **** 0.06
313 H 28.693842231915134 118.99675738455147 124.7333507127246 H 0.0 **** 0.06
314 H 27.709844364859308 120.36860272842097 125.29920005676647 H 0.0 **** 0.06
315 H 28.32439046758237 120.34349514385406 123.62840964473484 H 0.0 **** 0.06
316 C 46.87204950994837 0.20555873805209757 81.59717121256035 C 0.0 **** -0.24
317 H 46.26853356660567 0.9454630697358368 81.07219396511951 H 0.0 **** 0.06
318 H 47.68832178196054 -0.12080224865194111 80.95314161524543 H 0.0 **** 0.06
319 H 46.24986733851844 -0.650856262418845 81.85863400583193 H 0.0 **** 0.06
320 H 47.27986585156947 0.6478908015894724 82.50617079773986 H 0.0 **** 0.06
321 C 52.2688601473224 109.27428400416635 91.20907085242838 C 0.0 **** -0.24
322 H 52.5934197443577 109.72217060125217 92.14821925310449 H 0.0 **** 0.06
323 H 51.21060664651503 109.01747085005793 91.2764704077375 H 0.0 **** 0.06
324 H 52.85019521175107 108.37355599633713 91.0157561026566 H 0.0 **** 0.06
325 H 52.41864200465973 109.98527901536517 90.39708777852721 H 0.0 **** 0.06
326 C 36.08983140743948 131.85820005726018 64.95654261614654 C 0.0 **** -0.24
327 H 37.128349760530845 132.1168219422111 65.1611749074666 H 0.0 **** 0.06
328 H 36.05138014111353 131.1048160556387 64.16865417967767 H 0.0 **** 0.06
329 H 35.550448378471955 132.7487320356048 64.63505269409139 H 0.0 **** 0.06
330 H 35.62897576424942 131.46127630414296 65.86208817424064 H 0.0 **** 0.06
331 C 46.038648642504754 28.90767347842808 31.513013349774866 C 0.0 **** -0.24
332 H 45.69426466250626 28.190108880580368 30.768319598967622 H 0.0 **** 0.06
333 H 46.193360066324345 29.87679762785899 31.03942408813822 H 0.0 **** 0.06
334 H 46.97690041323531 28.559132623599282 31.945528071461837 H 0.0 **** 0.06
335 H 45.288946324308554 29.002071349051477 32.29981359557459 H 0.0 **** 0.06
336 C 93.58235156212821 109.68703039751665 8.117254504938387 C 0.0 **** -0.24
337 H 94.04793024243398 108.78932716382758 7.708961086200549 H 0.0 **** 0.06
338 H 94.16977543670986 110.5614844640665 7.834504770690536 H 0.0 **** 0.06
339 H 93.54033681491684 109.61249298632242 9.203460265237652 H 0.0 **** 0.06
340 H 92.57230569826547 109.78369887579026 7.720399908900749 H 0.0 **** 0.06
341 C 87.63684081707278 87.56791227743318 50.79981807102635 C 0.0 **** -0.24
342 H 86.85443681284063 87.8059716315584 50.078592848750475 H 0.0 **** 0.06
343 H 87.85418773909485 86.4999868771433 50.76078258819376 H 0.0 **** 0.06
344 H 87.30028947966521 87.83415706197655 51.80135335908355 H 0.0 **** 0.06
345 H 88.53738537544328 88.13094834845216 50.5578183371282 H 0.0 **** 0.06
346 C 80.20314716835605 116.96541424264726 76.08900345877123 C 0.0 **** -0.24
347 H 79.30106089458775 116.41796472096834 75.81484937476586 H 0.0 **** 0.06
348 H 80.02290485473475 117.5248586164991 77.0070670580011 H 0.0 **** 0.06
349 H 80.46555686380088 117.65555592433171 75.28768539833794 H 0.0 **** 0.06
350 H 81.02079455556441 116.26078929150157 76.24560664580349 H 0.0 **** 0.06
351 C 55.91532434111765 69.10592878644701 45.298965961592444 C 0.0 **** -0.24
352 H 55.65987520760184 68.48234444123068 44.442342148125896 H 0.0 **** 0.06
353 H 55.01076950047997 69.57441993179862 45.68919248026606 H 0.0 **** 0.06
354 H 56.6198133046388 69.87787352901913 44.98878264301665 H 0.0 **** 0.06
355 H 56.36919296887963 68.48938337561844 46.07375884321527 H 0.0 **** 0.06
356 C 86.48061414623238 47.225873570537416 124.6599296494573 C 0.0 **** -0.24
357 H 85.90455664209958 48.117354896862395 124.90579101048968 H 0.0 **** 0.06
358 H 87.44484795987975 47.520207959599716 124.24610787634924 H 0.0 **** 0.06
359 H 85.93584603810781 46.63170384529987 123.92549983077924 H 0.0 **** 0.06
360 H 86.63742141711333 46.63379756830106 125.56144312046501 H 0.0 **** 0.06
361 C 7.68314282995027 42.56686051919537 9.727327630875067 C 0.0 **** -0.24
362 H 8.19160831478763 42.118233850816196 10.580165821980842 H 0.0 **** 0.06
363 H 6.716240274336883 42.95579263308207 10.044953624840502 H 0.0 **** 0.06
364 H 7.535525621694319 41.81309176108708 8.954296030792761 H 0.0 **** 0.06
365 H 8.290546069523941 43.3806791172213 9.32966230049584 H 0.0 **** 0.06
366 C 109.80445463287998 64.35121515233124 29.33693271147075 C 0.0 **** -0.24
367 H 109.18675893641284 63.70953284925139 29.966018519915536 H 0.0 **** 0.06
368 H 109.29443717761653 65.30033550337438 29.175663485535438 H 0.0 **** 0.06
369 H 109.97664326971065 63.862389238547195 28.37736071295862 H 0.0 **** 0.06
370 H 110.76028848793689 64.53023114344967 29.829216139919424 H 0.0 **** 0.06
371 C 127.77512888444589 32.15765603561752 11.484314363218754 C 0.0 **** -0.24
372 H 128.52728044860416 32.15166989814391 10.695456802716162 H 0.0 **** 0.06
373 H 127.80431223419494 31.209806434005714 12.02207131846908 H 0.0 **** 0.06
374 H 126.78768379141817 32.29686398997271 11.04317216541958 H 0.0 **** 0.06
375 H 127.98166783288748 32.97502343966366 12.175999480296177 H 0.0 **** 0.06
376 C 122.54674090197358 76.64814679314954 5.236428643408974 C 0.0 **** -0.24
377 H 122.47766968404466 76.92037814666989 6.289355180526822 H 0.0 **** 0.06
378 H 121.56300098397412 76.35027845478139 4.8729945922911 H 0.0 **** 0.06
379 H 123.24324852423382 75.81777167530734 5.121993767159299 H 0.0 **** 0.06
380 H 122.90278098646263 77.50348952219363 4.662588669352427 H 0.0 **** 0.06
381 C 14.020066590275519 47.84112748514531 22.588223596143223 C 0.0 **** -0.24
382 H 13.562766027432701 48.54554431838767 23.2821321804866 H 0.0 **** 0.06
383 H 14.199321368664812 46.89395634889394 23.098041872463142 H 0.0 **** 0.06
384 H 14.967275683524235 48.2463765839118 22.230586600518706 H 0.0 **** 0.06
385 H 13.352270774277088 47.6783168565874 21.74230781667643 H 0.0 **** 0.06
386 C 85.74470198233588 25.462034489864898 84.32704160215616 C 0.0 **** -0.24
387 H 85.74316863217491 26.508991118826295 84.02470652133766 H 0.0 **** 0.06
388 H 85.58448147153148 25.39413347842695 85.40204290483304 H 0.0 **** 0.06
389 H 86.70532707749618 25.01286880083982 84.0722657493615 H 0.0 **** 0.06
390 H 84.94700414550111 24.932769087269456 83.80524817097128 H 0.0 **** 0.06
391 C 28.16944642245619 91.67715202936665 60.82612568280075 C 0.0 **** -0.24
392 H 28.229322787463744 91.91602950964256 59.763477333601 H 0.0 **** 0.06
393 H 27.123189722518973 91.57510465297575 61.116210781125716 H 0.0 **** 0.06
394 H 28.631341944998297 92.47636046544183 61.4043422388192 H 0.0 **** 0.06
395 H 28.69238213052627 90.73970971116782 61.01678042469064 H 0.0 **** 0.06
396 C 71.42733769913548 108.44001723271809 28.35067766338358 C 0.0 **** -0.24
397 H 70.6801378791921 107.64874741338987 28.416613955080493 H 0.0 **** 0.06
398 H 71.15267923541143 109.13283023161222 27.55519671199073 H 0.0 **** 0.06
399 H 72.40109844293215 108.00285486873686 28.131771054791102 H 0.0 **** 0.06
400 H 71.47463457063196 108.97503789461402 29.299101594979504 H 0.0 **** 0.06
401 C 81.85904708858078 92.21076110013884 85.3875773731656 C 0.0 **** -0.24
402 H 81.42648531679254 91.82250882772931 84.46557545302652 H 0.0 **** 0.06
403 H 81.11945002285023 92.8199548747561 85.90711195733573 H 0.0 **** 0.06
404 H 82.73114743003919 92.81939938108093 85.15092478318905 H 0.0 **** 0.06
405 H 82.15898267209172 91.37878052162922 86.02622681826706 H 0.0 **** 0.06
406 C 95.33353800540203 107.83474538747544 47.339573916411496 C 0.0 **** -0.24
407 H 95.7249744483816 107.26289465282292 48.18055803151242 H 0.0 **** 0.06
408 H 94.57783183340962 108.53529537013276 47.69771224024953 H 0.0 **** 0.06
409 H 94.88431359860277 107.15470523648526 46.61662451838811 H 0.0 **** 0.06
410 H 96.14559505749946 108.3864074893782 46.86535839937386 H 0.0 **** 0.06
411 C 86.90131595130708 36.30042917745493 64.05750973811325 C 0.0 **** -0.24
412 H 87.48410931137954 35.727827148637004 64.77869477398008 H 0.0 **** 0.06
413 H 85.89333138677418 36.45135020756908 64.4435758086359 H 0.0 **** 0.06
414 H 86.85252740247415 35.754421462741504 63.11507918810156 H 0.0 **** 0.06
415 H 87.37680649783783 37.26727197402141 63.892643711797774 H 0.0 **** 0.06
416 C 68.38889373692112 50.24051905485203 46.63964283281308 C 0.0 **** -0.24
417 H 67.60353158867656 49.90237434121906 45.96461361104963 H 0.0 **** 0.06
418 H 68.97594382802939 51.01828181323083 46.15251729943162 H 0.0 **** 0.06
419 H 69.03640322998403 49.400919309607275 46.89259498178751 H 0.0 **** 0.06
420 H 67.93978985276273 50.639537579130206 47.54909760159194 H 0.0 **** 0.06
421 C 13.020212742597778 109.51250738966411 99.19941585240902 C 0.0 **** -0.24
422 H 12.29698068559614 108.84370758645642 99.66627909452963 H 0.0 **** 0.06
423 H 13.210469343333695 110.35831978836299 99.86007300415565 H 0.0 **** 0.06
424 H 12.621117416566129 109.87380127252132 98.25206867499976 H 0.0 **** 0.06
425 H 13.951155562900851 108.97354931246434 99.02106014864975 H 0.0 **** 0.06
426 C 26.470205098003277 33.533152457034134 116.509089464418 C 0.0 **** -0.24
427 H 27.083335300872903 34.40474517015576 116.27984382957231 H 0.0 **** 0.06
428 H 26.449254726578204 32.86686927348305 115.64597364339033 H 0.0 **** 0.06
429 H 25.456050757086132 33.85493409895932 116.74396936717338 H 0.0 **** 0.06
430 H 26.89297242861744 33.00732454037052 117.36416768804594 H 0.0 **** 0.06
431 C 25.463440236876068 113.0694397292061 126.11242027171318 C 0.0 **** -0.24
432 H 25.786315495191047 112.37625780330069 126.88858224200453 H 0.0 **** 0.06
433 H 25.90906641644537 112.78039995331756 125.15999262047566 H 0.0 **** 0.06
434 H 25.782673935337357 114.07928050548594 126.37126103603131 H 0.0 **** 0.06
435 H 24.377419655323507 113.0406335781444 126.02856010891 H 0.0 **** 0.06
436 C 125.41509007915698 117.18469648902553 74.42290802325891 C 0.0 **** -0.24
437 H 125.76084861602754 117.37036714499999 75.43961766020705 H 0.0 **** 0.06
438 H 125.18569671356896 118.13389184057968 73.93740520550851 H 0.0 **** 0.06
439 H 124.51790967364563 116.56558532083389 74.45261980745049 H 0.0 **** 0.06
440 H 126.19467190187453 116.66789406973618 73.86316477414533 H 0.0 **** 0.06
441 C 85.6646432717602 71.51763222011434 12.850810474311931 C 0.0 **** -0.24
442 H 86.13629175934577 72.49913728282291 12.885746529503535 H 0.0 **** 0.06
443 H 86.39289913490721 70.75488712118019 13.130065675164083 H 0.0 **** 0.06
444 H 85.30392923859581 71.32365930935873 11.84068723559275 H 0.0 **** 0.06
445 H 84.82605447640486 71.49122270360874 13.5468194134734 H 0.0 **** 0.06
446 C 71.38866277856572 92.22326773402865 52.96391406529233 C 0.0 **** -0.24
447 H 71.3348217077971 91.4277445904071 53.70679568908628 H 0.0 **** 0.06
448 H 71.66815013488628 91.8007809157394 51.99836251060867 H 0.0 **** 0.06
449 H 72.13511090503022 92.95656848695229 53.27028849881037 H 0.0 **** 0.06
450 H 70.41559346372314 92.70819840255943 52.8802333638553 H 0.0 **** 0.06
451 C 73.086855667436 92.91115888256317 64.19344306908093 C 0.0 **** -0.24
452 H 74.10612904341002 92.7573956608309 64.54894940885715 H 0.0 **** 0.06
453 H 73.04014071209781 93.83167601206837 63.610943263698516 H 0.0 **** 0.06
454 H 72.41197280893039 92.98426534540897 65.04543870851234 H 0.0 **** 0.06
455 H 72.79175190632463 92.06923029653723 63.56698868072186 H 0.0 **** 0.06
456 C 20.6218082796628 83.93973955564525 9.899714752695388 C 0.0 **** -0.24
457 H 20.84643848575024 83.43699959632585 8.958901340539171 H 0.0 **** 0.06
458 H 19.636537544735774 83.63078141548868 10.250193785233307 H 0.0 **** 0.06
459 H 20.63078545210948 85.01857724349713 9.746607980985885 H 0.0 **** 0.06
460 H 21.37314078358534 83.6713705335859 10.642540175060859 H 0.0 **** 0.06
461 C 136.17901078321609 11.621392796811769 25.088007711138744 C 0.0 **** -0.24
462 H 135.75822518129485 12.083019060938252 25.980427825464005 H 0.0 **** 0.06
463 H 135.37625976034187 11.191212624127434 24.488865080694893 H 0.0 **** 0.06
464 H 136.87573136134392 10.835290744972408 25.37981086661094 H 0.0 **** 0.06
465 H 136.70585786232533 12.3750632544646 24.503094007926393 H 0.0 **** 0.06
466 C 48.007566673009705 116.26485942906032 76.24936838747112 C 0.0 **** -0.24
467 H 46.991237575667526 116.65666597126005 76.29768911045267 H 0.0 **** 0.06
468 H 48.6986940441177 116.99365065396327 76.6728992275361 H 0.0 **** 0.06
469 H 48.273064740846564 116.07374418862656 75.2094482853878 H 0.0 **** 0.06
470 H 48.06571377203477 115.33532957528396 76.81554611685476 H 0.0 **** 0.06
471 C 18.70823122766818 116.35290233942686 133.61566730472444 C 0.0 **** -0.24
472 H 18.320304658548906 116.60127597781263 134.60366810672457 H 0.0 **** 0.06
473 H 19.283922922926877 117.19444110244851 133.229929494708 H 0.0 **** 0.06
474 H 17.878560756467806 116.14036517370033 132.94262135478658 H 0.0 **** 0.06
475 H 19.351321934808368 115.47571177345165 133.68858593398298 H 0.0 **** 0.06
476 C 26.180499120427612 64.53029324811831 64.2166677315044 C 0.0 **** -0.24
477 H 26.94897627455842 63.89137293592245 63.781861168069156 H 0.0 **** 0.06
478 H 25.920258810412037 64.16159072548207 65.20942678851628 H 0.0 **** 0.06
479 H 25.294712142070665 64.5174957568042 63.58058458093626 H 0.0 **** 0.06
480 H 26.55728690435052 65.55007511265389 64.29490438429667 H 0.0 **** 0.06
481 C 55.1559204151951 91.34265227448907 20.10824390216922 C 0.0 **** -0.24
482 H 55.17220513753216 91.73574094410989 21.125102397300225 H 0.0 **** 0.06
483 H 55.910714829341245 91.85413333522418 19.510156431976156 H 0.0 **** 0.06
484 H 54.17138226778391 91.50719539641925 19.670843352404262 H 0.0 **** 0.06
485 H 55.37141881179009 90.27489757086283 20.129108790083592 H 0.0 **** 0.06
486 C 86.85918110236344 109.68765439749964 122.51015208421617 C 0.0 **** -0.24
487 H 86.25553265869502 110.51094780309774 122.12816178666745 H 0.0 **** 0.06
488 H 86.32020357646127 108.75028547072365 122.37704037662542 H 0.0 **** 0.06
489 H 87.05953202242483 109.8458223607636 123.56918012963737 H 0.0 **** 0.06
490 H 87.80239062003122 109.64648419471081 121.96496596593545 H 0.0 **** 0.06
491 C 69.33412431236286 90.39999744890733 76.5578099392431 C 0.0 **** -0.24
492 H 69.5938601297268 90.82723011856886 77.52613302146897 H 0.0 **** 0.06
493 H 69.63297413160512 91.08810712802216 75.7656319155904 H 0.0 **** 0.06
494 H 68.25703165487619 90.23616720799868 76.50981852950154 H 0.0 **** 0.06
495 H 69.85264527714924 89.45062772640796 76.42846874311533 H 0.0 **** 0.06
496 C 29.37119785325055 33.91242046771933 43.111566335865874 C 0.0 **** -0.24
497 H 30.175766173515342 34.12581797148869 42.40762926561848 H 0.0 **** 0.06
498 H 29.433838280356 34.601337462916405 43.953709788900625 H 0.0 **** 0.06
499 H 29.465692666323093 32.88827377788772 43.47163621783463 H 0.0 **** 0.06
500 H 28.409518697642028 34.0344556148157 42.612311163801365 H 0.0 **** 0.06
501 C 39.863290945550176 32.432775108381804 41.284456286178475 C 0.0 **** -0.24
502 H 39.827510768256076 31.365446969070774 41.50139281448982 H 0.0 **** 0.06
503 H 38.85180684192517 32.80402843225022 41.12050834981824 H 0.0 **** 0.06
504 H 40.46274416940099 32.6018299252284 40.38949014180416 H 0.0 **** 0.06
505 H 40.31204925534951 32.95970799750751 42.12674233584656 H 0.0 **** 0.06
506 C 15.409113947225478 80.65397084734832 26.709809350709634 C 0.0 **** -0.24
507 H 15.920212340444664 81.27594716772091 25.974898502832218 H 0.0 **** 0.06
508 H 15.004212814497322 81.28529099033776 27.501010355806272 H 0.0 **** 0.06
509 H 16.115458955820202 79.94303227576827 27.137898261599275 H 0.0 **** 0.06
510 H 14.596720818827464 80.11244760060248 26.224900026939906 H 0.0 **** 0.06
511 C 9.373827711208154 59.298535041165565 24.442130470010625 C 0.0 **** -0.24
512 H 9.754092080806544 60.30349443919823 24.256961052493267 H 0.0 **** 0.06
513 H 9.575883533725666 59.01758846128581 25.476200375761145 H 0.0 **** 0.06
514 H 9.866461339931565 58.595360036611396 23.771398755619096 H 0.0 **** 0.06
515 H 8.2989331142779 59.27907437249422 24.263645378179383 H 0.0 **** 0.06
516 C 133.2625636414756 124.39144418208434 18.122407289224583 C 0.0 **** -0.24
517 H 133.9996076652119 125.18103364131846 18.268124983038575 H 0.0 **** 0.06
518 H 133.5954058559036 123.48666339902795 18.632775724290923 H 0.0 **** 0.06
519 H 133.15309016789087 124.18858305007834 17.05700079995728 H 0.0 **** 0.06
520 H 132.3040978687685 124.7080720364217 18.533510947219725 H 0.0 **** 0.06
521 C 109.4758648225245 85.21343897246045 136.85914527310922 C 0.0 **** -0.24
522 H 109.11852578265413 84.26200827902741 137.2534643339905 H 0.0 **** 0.06
523 H 110.56429454795258 85.23931114239375 136.90431597615674 H 0.0 **** 0.06
524 H 109.06769857437408 86.0298889288418 137.45631520136754 H 0.0 **** 0.06
525 H 109.15113916449366 85.32236775113921 135.8248780059472 H 0.0 **** 0.06
526 C 107.66248758185758 51.613443796678524 57.04780173901622 C 0.0 **** -0.24
527 H 107.57473565517655 52.005368870312566 56.03469050167831 H 0.0 **** 0.06
528 H 107.32953646291519 50.57560651863008 57.065306202989746 H 0.0 **** 0.06
529 H 107.04235846936139 52.20512467102867 57.72119812222468 H 0.0 **** 0.06
530 H 108.70207171167404 51.66718895926701 57.37046617678408 H 0.0 **** 0.06
531 C 120.97449978048462 121.31440500002705 107.36887558524029 C 0.0 **** -0.24
532 H 121.10811901793011 121.4161701070677 108.44556764669193 H 0.0 **** 0.06
533 H 121.87682042445573 120.88764935213308 106.93011236050731 H 0.0 **** 0.06
534 H 120.7850537455393 122.29449056724155 106.93162220152294 H 0.0 **** 0.06
535 H 120.12757436718431 120.65733057006565 107.16914667499685 H 0.0 **** 0.06
536 C 67.41162324891744 84.2579280554069 130.59921637719057 C 0.0 **** -0.24
537 H 68.0463058972444 84.96372408049046 130.06317255575502 H 0.0 **** 0.06
538 H 66.3641025184053 84.50637604966397 130.42407343774897 H 0.0 **** 0.06
539 H 67.62481313347399 84.31663872299589 131.6669332077179 H 0.0 **** 0.06
540 H 67.61102348116049 83.24786604226693 130.24344219683954 H 0.0 **** 0.06
541 C 129.68568384803632 93.80790162974837 8.738050069703661 C 0.0 **** -0.24
542 H 130.20716372173212 92.87323612536912 8.533220457587191 H 0.0 **** 0.06
543 H 128.88933715450406 93.94820776433332 8.006614338494217 H 0.0 **** 0.06
544 H 130.39018893763964 94.63735349442236 8.67227568362577 H 0.0 **** 0.06
545 H 129.2584871432521 93.77300237415307 9.740048603296756 H 0.0 **** 0.06
546 C 103.85457488967893 2.3010134688756416 78.75379111450485 C 0.0 **** -0.24
547 H 104.19069571499708 2.0929943524105816 77.73842770244215 H 0.0 **** 0.06
548 H 104.59261512097964 2.9239128125826674 79.25980209920795 H 0.0 **** 0.06
549 H 103.73645807022925 1.3627657794097061 79.29618927859926 H 0.0 **** 0.06
550 H 102.89878894114591 2.8241985917505836 78.7197966493112 H 0.0 **** 0.06
551 C 71.57757347795169 72.07279622240418 131.85919966263668 C 0.0 **** -0.24
552 H 72.06559427882758 72.59851572021779 131.03891145861235 H 0.0 **** 0.06
553 H 70.67673304652978 72.61276924084632 132.1514662138067 H 0.0 **** 0.06
554 H 72.25790015126694 72.01443178631996 132.70899804236564 H 0.0 **** 0.06
555 H 71.30969947675965 71.06636304684594 131.53767697039626 H 0.0 **** 0.06
556 C 82.92202023387136 40.07031649146839 99.45929798072481 C 0.0 **** -0.24
557 H 82.52120152132886 39.20303087717204 98.93549549566525 H 0.0 **** 0.06
558 H 83.51763123110311 40.66817386555621 98.77042999755378 H 0.0 **** 0.06
559 H 83.54818247272996 39.73609643460256 100.28734866064892 H 0.0 **** 0.06
560 H 82.09912867221016 40.67286719450914 99.84592863645678 H 0.0 **** 0.06
561 C 43.52437529532898 106.3571811654209 134.14778363794065 C 0.0 **** -0.24
562 H 42.67787065538607 106.61058429285178 133.50944374512179 H 0.0 **** 0.06
563 H 44.3457837032027 107.04714594397859 133.95351343361847 H 0.0 **** 0.06
564 H 43.84750689844637 105.33870461319793 133.93504086153305 H 0.0 **** 0.06
565 H 43.225692740355896 106.43266455560315 135.19380041380654 H 0.0 **** 0.06
566 C 17.76371385789247 115.46571244953464 87.0380578286608 C 0.0 **** -0.24
567 H 18.01513795214379 115.1175261466588 86.03700028092946 H 0.0 **** 0.06
568 H 18.52733582362012 115.13144177607549 87.74169747965527 H 0.0 **** 0.06
569 H 16.79641839880739 115.05861390453379 87.33138068846736 H 0.0 **** 0.06
570 H 17.716706541943694 116.55537497669201 87.04335126866901 H 0.0 **** 0.06
571 C 119.38976131775084 102.09072663508755 58.877951896570224 C 0.0 **** -0.24
572 H 119.32009605793269 102.22512224968233 57.79881631569113 H 0.0 **** 0.06
573 H 118.58488012360473 101.43722397137373 59.214777675275826 H 0.0 **** 0.06
574 H 119.30446518276557 103.05857968402916 59.37180622509739 H 0.0 **** 0.06
575 H 120.35113345047814 101.64035675071051 59.126561404363585 H 0.0 **** 0.06
576 C 129.9915752332742 34.44854355590885 39.79414417314189 C 0.0 **** -0.24
577 H 130.24868916794046 35.506934444691105 39.773892051915126 H 0.0 **** 0.06
578 H 129.1076154649844 34.30020780563046 40.41555125507847 H 0.0 **** 0.06
579 H 130.82559689934268 33.87984012038037 40.20691091667294 H 0.0 **** 0.06
580 H 129.7850837916162 34.10597443081005 38.78044514650853 H 0.0 **** 0.06
581 C 30.151254196822066 86.10454231239311 15.841115267533269 C 0.0 **** -0.24
582 H 30.617877752556097 85.19882097470177 15.452616336858796 H 0.0 **** 0.06
583 H 30.097290572484724 86.85239721390825 15.050203124101301 H 0.0 **** 0.06
584 H 30.7446434027124 86.49183056163129 16.66907245340809 H 0.0 **** 0.06
585 H 29.1462939176902 85.87296024803425 16.192184473647103 H 0.0 **** 0.06
586 C 103.30079417118394 65.85202202812411 106.96188302832194 C 0.0 **** -0.24
587 H 102.78770569076723 64.97922235957799 107.36674973633865 H 0.0 **** 0.06
588 H 104.3765476366179 65.68382548960267 106.98277247898841 H 0.0 **** 0.06
589 H 103.05664739047431 66.72774330477534 107.56389108003054 H 0.0 **** 0.06
590 H 102.97769760786318 66.01710199538434 105.93407892568577 H 0.0 **** 0.06
591 C 116.1742622919659 113.24539393767606 109.75781992584746 C 0.0 **** -0.24
592 H 116.47157099086309 112.38305694819735 109.16009208535094 H 0.0 **** 0.06
593 H 116.32543500595077 114.15690791088781 109.18053395117622 H 0.0 **** 0.06
594 H 116.77709267948805 113.28398163394525 110.66479872807574 H 0.0 **** 0.06
595 H 115.12081944574652 113.15554348923683 110.0255253467983 H 0.0 **** 0.06
596 C 14.054523688979174 121.504244056644 24.042080836247848 C 0.0 **** -0.24
597 H 13.91053229700887 122.49459815060236 23.609750724758186 H 0.0 **** 0.06
598 H 13.660717759531451 121.49166382599083 25.058831903270487 H 0.0 **** 0.06
599 H 15.118696386554973 121.26797269764022 24.061300675032243 H 0.0 **** 0.06
600 H 13.52910046733163 120.76475578097644 23.438631134924037 H 0.0 **** 0.06
601 C 55.89626730759022 74.20677364428451 8.28544865169522 C 0.0 **** -0.24
602 H 55.25787481729333 73.78011763948632 9.059687495048934 H 0.0 **** 0.06
603 H 55.901053174969036 75.29288021588587 8.37663344252968 H 0.0 **** 0.06
604 H 55.51309598311144 73.92619108379373 7.304397062650736 H 0.0 **** 0.06
605 H 56.911079842656704 73.82715377962211 8.401832976253218 H 0.0 **** 0.06
606 C 23.46533406460056 35.46666160867436 61.174912741380254 C 0.0 **** -0.24
607 H 24.46086479966872 35.567273798412565 60.741631258575666 H 0.0 **** 0.06
608 H 23.06911163100299 36.45434041662604 61.407718137131496 H 0.0 **** 0.06
609 H 23.526125748190182 34.87433293338608 62.08778302966134 H 0.0 **** 0.06
610 H 22.80789104563965 34.968860354990426 60.461770627927976 H 0.0 **** 0.06
611 C 93.3499179159182 29.083109601997535 39.33655949140177 C 0.0 **** -0.24
612 H 93.57715676573326 28.675590898539355 40.32101264701471 H 0.0 **** 0.06
613 H 92.38010333567247 28.71309776926543 39.00453092875964 H 0.0 **** 0.06
614 H 94.11912479990816 28.7715350236536 38.628215489422864 H 0.0 **** 0.06
615 H 93.326481122733 30.170829634098425 39.39027019120654 H 0.0 **** 0.06
616 C 68.19513438426054 23.710187871660793 62.492014324680895 C 0.0 **** -0.24
617 H 67.86073185254463 23.843801194905524 63.52021539042471 H 0.0 **** 0.06
618 H 67.96664314524355 22.695399971928566 62.165016813292084 H 0.0 **** 0.06
619 H 69.27167653583228 23.876191999698122 62.435900521636086 H 0.0 **** 0.06
620 H 67.68357662340088 24.425240807943936 61.84770925848329 H 0.0 **** 0.06
621 C 85.97571897134401 39.078422814256015 88.84200896439017 C 0.0 **** -0.24
622 H 85.40954174316786 38.63841740402955 88.02213911752068 H 0.0 **** 0.06
623 H 85.93306856236194 40.165800922305834 88.77029486146387 H 0.0 **** 0.06
624 H 87.01372034346747 38.750783405718636 88.78270769154568 H 0.0 **** 0.06
625 H 85.54803339608108 38.759567735262976 89.7927747449047 H 0.0 **** 0.06
626 C 49.9207982890908 103.59328488587002 80.56350405882176 C 0.0 **** -0.24
627 H 49.70445170682241 102.72114069701712 81.17998090625917 H 0.0 **** 0.06
628 H 49.42363065180746 104.46769518000673 80.98473806859559 H 0.0 **** 0.06
629 H 49.55611118318613 103.4214071567232 79.55026841345841 H 0.0 **** 0.06
630 H 50.99657146388144 103.76280416193691 80.53871927580565 H 0.0 **** 0.06
631 C 92.82545602929014 96.35972887314557 131.20883161654365 C 0.0 **** -0.24
632 H 92.53303561987904 95.48104606962896 130.633567402238 H 0.0 **** 0.06
633 H 93.30981080801273 97.0802104799243 130.54779842303896 H 0.0 **** 0.06
634 H 93.5201823391263 96.06453797205725 131.99502926236534 H 0.0 **** 0.06
635 H 91.94095335392302 96.8123059383189 131.65551384589207 H 0.0 **** 0.06
636 C 97.79927274389553 72.575936895672 5.581248258109781 C 0.0 **** -0.24
637 H 98.5523913953703 73.12753047151251 6.143152024733183 H 0.0 **** 0.06
638 H 96.80623102099719 72.85901715762756 5.930633109742871 H 0.0 **** 0.06
639 H 97.94642397968526 71.5063641057952 5.729385352668999 H 0.0 **** 0.06
640 H 97.89288772347489 72.8123790141456 4.520441249705357 H 0.0 **** 0.06
641 C 114.63300160260991 117.80832377303125 82.8599552498879 C 0.0 **** -0.24
642 H 115.49170509373073 117.21983633338013 82.53545571113627 H 0.0 **** 0.06
643 H 113.71918916074401 117.36582316089164 82.46402082473054 H 0.0 **** 0.06
644 H 114.73301511691602 118.82933362680922 82.49214521621721 H 0.0 **** 0.06
645 H 114.59075697254002 117.81812275070487 83.94957512936953 H 0.0 **** 0.06
646 C 38.28673408282248 121.84721356108712 52.513849859717965 C 0.0 **** -0.24
647 H 37.728775009555065 121.171609292074 51.86529329379863 H 0.0 **** 0.06
648 H 38.16589630916853 122.87177268148359 52.1621725952061 H 0.0 **** 0.06
649 H 39.34295539203447 121.57847535151141 52.49603457641214 H 0.0 **** 0.06
650 H 37.90942127256312 121.76611860864162 53.53369237514835 H 0.0 **** 0.06
651 C 22.255318776013297 77.65419666662407 84.85029547169741 C 0.0 **** -0.24
652 H 22.468153339361905 78.68836516934431 84.57938400495257 H 0.0 **** 0.06
653 H 21.92415431588354 77.61253861589148 85.88807954502154 H 0.0 **** 0.06
654 H 23.156389551337583 77.05391755007908 84.73128108456577 H 0.0 **** 0.06
655 H 21.46988949701813 77.26454029944338 84.20205950854114 H 0.0 **** 0.06
656 C 49.431870275746704 44.7370727281004 16.927191564260852 C 0.0 **** -0.24
657 H 49.19910169395057 44.214659229610476 15.998997613227118 H 0.0 **** 0.06
658 H 48.54140566833773 44.775893953432075 17.55587895118208 H 0.0 **** 0.06
659 H 49.761165977863826 45.75105687875282 16.70042176687059 H 0.0 **** 0.06
660 H 50.22580776283465 44.206680850606176 17.453467925763448 H 0.0 **** 0.06
661 C 92.34401435601 85.04014942701203 63.07505494168332 C 0.0 **** -0.24
662 H 92.06602460981055 86.0718103555331 62.85788790439736 H 0.0 **** 0.06
663 H 92.57616920253322 84.52267412450574 62.14284915966428 H 0.0 **** 0.06
664 H 91.5147069605396 84.53774526114601 63.57290467376872 H 0.0 **** 0.06
665 H 93.21900684794949 85.02909750828962 63.724244446595605 H 0.0 **** 0.06
666 C 68.57053824238994 76.03443628299709 27.98437269384044 C 0.0 **** -0.24
667 H 68.14427423045024 76.53793782652113 28.852554292996217 H 0.0 **** 0.06
668 H 69.07751187529152 75.12398507628016 28.305236269846205 H 0.0 **** 0.06
669 H 69.28592727088315 76.69633318450022 27.496327521377054 H 0.0 **** 0.06
670 H 67.77437283272889 75.77977058469469 27.284757021663665 H 0.0 **** 0.06
671 C 21.299734505896396 88.86118662017117 135.74282847687755 C 0.0 **** -0.24
672 H 22.37604489653785 88.80647352943521 135.90582380820734 H 0.0 **** 0.06
673 H 20.99157717489598 88.05593464031284 135.07649497388505 H 0.0 **** 0.06
674 H 21.04862794232662 89.82177501924951 135.29223274183025 H 0.0 **** 0.06
675 H 20.78227151674028 88.76144729617147 136.69697478869273 H 0.0 **** 0.06
676 C 52.591767437408976 17.49124476069865 39.200135366497314 C 0.0 **** -0.24
677 H 53.13215051051793 18.413503248778355 38.986080488424335 H 0.0 **** 0.06
678 H 52.52258662741178 17.35204104493741 40.27867390116343 H 0.0 **** 0.06
679 H 53.122482575635786 16.647722655466005 38.75754525485783 H 0.0 **** 0.06
680 H 51.58930051556183 17.5517294433793 38.776074344224654 H 0.0 **** 0.06
681 C 13.204932760078151 123.16217499761518 66.71445073845031 C 0.0 **** -0.24
682 H 12.433729538312122 122.82681326889218 66.02073380749079 H 0.0 **** 0.06
683 H 12.736027328951664 123.64733592656114 67.57123290935618 H 0.0 **** 0.06
684 H 13.863066055126012 123.87058958775026 66.2110518805637 H 0.0 **** 0.06
685 H 13.785755887760331 122.3047555897115 67.05498786280867 H 0.0 **** 0.06
686 C 28.51411373012249 70.4972342262227 62.716481776249026 C 0.0 **** -0.24
687 H 28.67055740183841 70.0540090224905 63.700187464587145 H 0.0 **** 0.06
688 H 29.044841291965696 71.44817510353988 62.65816519945383 H 0.0 **** 0.06
689 H 27.449128866262043 70.66583439843293 62.55816164443513 H 0.0 **** 0.06
690 H 28.893879458557194 69.82199224556612 61.94960347497738 H 0.0 **** 0.06
691 C 133.89549677258535 83.848144863068 42.005891151966296 C 0.0 **** -0.24
692 H 134.81977829486095 84.31709482215899 41.66785759940198 H 0.0 **** 0.06
693 H 133.26373397533516 83.62856211225903 41.14561665306734 H 0.0 **** 0.06
694 H 133.3700710604674 84.52486342707283 42.68065031230246 H 0.0 **** 0.06
695 H 134.12951860353436 82.92163200398494 42.531330797381145 H 0.0 **** 0.06
696 C 51.06025842327875 53.40387110582023 37.482754366833554 C 0.0 **** -0.24
697 H 51.37545643687815 52.361030698503654 37.4535800445829 H 0.0 **** 0.06
698 H 51.90028438663268 54.04371610468294 37.210925636184946 H 0.0 **** 0.06
699 H 50.72285479175497 53.65288358673726 38.48829928532453 H 0.0 **** 0.06
700 H 50.24428981536664 53.55600064629533 36.776441487964206 H 0.0 **** 0.06
701 C 95.92801450160579 111.10063913311052 34.95790644147638 C 0.0 **** -0.24
702 H 96.20802716874113 110.22859710667291 34.368185656518165 H 0.0 **** 0.06
703 H 96.43791648203836 111.06783683594867 35.9211120663216 H 0.0 **** 0.06
704 H 94.84987279994652 111.09977362669099 35.118164928082194 H 0.0 **** 0.06
705 H 96.21542655177223 112.00717792010815 34.424968528928446 H 0.0 **** 0.06
706 C 81.86763263675357 73.58893104663166 41.38348776928166 C 0.0 **** -0.24
707 H 81.56948375501594 73.0664422188202 40.473834104897975 H 0.0 **** 0.06
708 H 81.2783616068549 74.49989384081266 41.48792194971878 H 0.0 **** 0.06
709 H 82.92607070234101 73.84479783686967 41.32338645803611 H 0.0 **** 0.06
710 H 81.69718977674142 72.94427770801916 42.24526287245669 H 0.0 **** 0.06
711 C 128.44812746224255 60.577514321888316 25.56571559535459 C 0.0 **** -0.24
712 H 129.14482812767915 60.093236342030465 26.250267348386956 H 0.0 **** 0.06
713 H 128.62169720327535 61.65403204886195 25.573080053922865 H 0.0 **** 0.06
714 H 127.4255596231963 60.3721815505598 25.883843826690992 H 0.0 **** 0.06
715 H 128.59994787938274 60.19178850224988 24.558565593622745 H 0.0 **** 0.06
716 C 129.56912737100177 24.78129015014232 129.55430287276013 C 0.0 **** -0.24
717 H 129.89202507923926 25.257774443605058 128.62886901094407 H 0.0 **** 0.06
718 H 128.81623340524715 24.02443896039042 129.3299301840493 H 0.0 **** 0.06
719 H 129.1423559993551 25.531295262681063 130.21957841647438 H 0.0 **** 0.06
720 H 130.42475167601378 24.31010805333012 130.03827761697582 H 0.0 **** 0.06
721 C 66.17157032693522 70.13906042135818 33.552896557945786 C 0.0 **** -0.24
722 H 65.4478390988677 70.82087452577812 34.00020040081051 H 0.0 **** 0.06
723 H 66.87111168032398 69.79914299331438 34.317343517181556 H 0.0 **** 0.06
724 H 66.71805168740579 70.6567193846189 32.76325456499954 H 0.0 **** 0.06
725 H 65.64876387961124 69.28132549624746 33.12959609239485 H 0.0 **** 0.06
726 C 78.74062114428745 20.341178189652226 90.83921244027653 C 0.0 **** -0.24
727 H 79.02267349226264 19.707856338276542 89.99776131593529 H 0.0 **** 0.06
728 H 78.26505936727119 19.731610492519223 91.60847464868908 H 0.0 **** 0.06
729 H 78.04328211300151 21.107242987205268 90.4995963620936 H 0.0 **** 0.06
730 H 79.63084510080631 20.816391255407837 91.25090516306602 H 0.0 **** 0.06
731 C 52.89445368211315 71.12383825607442 53.9650784512543 C 0.0 **** -0.24
732 H 52.11996066046541 70.66389312139262 54.5793488500498 H 0.0 **** 0.06
733 H 53.47703606871596 71.81552121023384 54.573701094926264 H 0.0 **** 0.06
734 H 52.42964506583486 71.66647487740494 53.14161653232938 H 0.0 **** 0.06
735 H 53.54916263952792 70.34911660815332 53.56656296811839 H 0.0 **** 0.06
736 C 77.05174871823533 136.11107804556963 16.39831410557563 C 0.0 **** -0.24
737 H 76.23278482538086 136.81823745628202 16.530823662482113 H 0.0 **** 0.06
738 H 77.31251001808079 135.67357727405198 17.36326011106337 H 0.0 **** 0.06
739 H 77.91757719549764 136.63057026869166 15.988155692149078 H 0.0 **** 0.06
740 H 76.74251021431687 135.32186253654953 15.71354592788827 H 0.0 **** 0.06
741 C 88.03288582655796 118.51497977314361 135.42242078178393 C 0.0 **** -0.24
742 H 87.15778061600953 118.25204634106086 134.82743928483438 H 0.0 **** 0.06
743 H 88.9263852428246 118.09842422489284 134.95726130777996 H 0.0 **** 0.06
744 H 87.92297204487724 118.10931013262646 136.42878414861033 H 0.0 **** 0.06
745 H 88.1222549873969 119.59977283153475 135.47669063647504 H 0.0 **** 0.06
746 C 19.30078846045197 94.91398690500421 95.94168893322313 C 0.0 **** -0.24
747 H 19.783354863391253 95.67031129245197 95.32169199392753 H 0.0 **** 0.06
748 H 18.219499467767236 94.9813644307811 95.82030746142563 H 0.0 **** 0.06
749 H 19.56135880975802 95.08030424106869 96.98661460875252 H 0.0 **** 0.06
750 H 19.63926194242859 93.92426740474838 95.63534750967115 H 0.0 **** 0.06
751 C 101.51256033365932 35.759363870777804 127.18612278587567 C 0.0 **** -0.24
752 H 102.19486030897275 34.92153107466004 127.04015003550847 H 0.0 **** 0.06
753 H 100.50921057931615 35.380889494006624 127.38443449269344 H 0.0 **** 0.06
754 H 101.49776379991793 36.376978472807366 126.287879307415 H 0.0 **** 0.06
755 H 101.84946768768744 36.35853213011984 128.03331107225594 H 0.0 **** 0.06
756 C 116.44045309319802 37.458524371642675 14.278473279448662 C 0.0 **** -0.24
757 H 116.21662886949389 37.31565310754043 13.221796160809177 H 0.0 **** 0.06
758 H 116.7981728409244 38.47612395328838 14.43911197282236 H 0.0 **** 0.06
759 H 117.20993388235854 36.75012889916378 14.585572998886562 H 0.0 **** 0.06
760 H 115.53777886838088 37.29329065992314 14.865895686096806 H 0.0 **** 0.06
761 C 30.79812401898633 126.47631646109573 23.705670730239547 C 0.0 **** -0.24
762 H 29.711376564534532 126.38941128832158 23.723179557455126 H 0.0 **** 0.06
763 H 31.23782526054532 125.62333669310783 24.222756220340727 H 0.0 **** 0.06
764 H 31.09641727716319 127.39779300649474 24.204743998542824 H 0.0 **** 0.06
765 H 31.143806321824513 126.49349583610223 22.67225036076252 H 0.0 **** 0.06
766 C 32.92355151078888 79.8091108491089 27.41087091711381 C 0.0 **** -0.24
767 H 33.09421794318499 80.3321155079302 28.351583484434826 H 0.0 **** 0.06
768 H 33.87022434579025 79.4198691461766 27.03366064509501 H 0.0 **** 0.06
769 H 32.49871134940906 80.49924845854409 26.682657396566185 H 0.0 **** 0.06
770 H 32.230902391467694 78.98300089133171 27.57527179943733 H 0.0 **** 0.06
771 C 30.822786948814418 73.35154894513558 39.2378591854085 C 0.0 **** -0.24
772 H 31.648595485821197 73.7342759863006 39.838812097610486 H 0.0 **** 0.06
773 H 30.769649378766864 72.26765027571926 39.34303125207293 H 0.0 **** 0.06
774 H 30.986181966606217 73.60842997058573 38.19168796371633 H 0.0 **** 0.06
775 H 29.88814988783917 73.79704295848934 39.579134334909696 H 0.0 **** 0.06
776 C 47.63401825758382 47.71484340281492 38.243166243840534 C 0.0 **** -0.24
777 H 47.72733703297007 46.809096989472835 37.64531506756586 H 0.0 **** 0.06
778 H 46.66905541307938 48.18189173584531 38.04751195581625 H 0.0 **** 0.06
779 H 48.43369050535972 48.4074891291674 37.97876824112143 H 0.0 **** 0.06
780 H 47.70818537984576 47.4619362202607 39.30075607463135 H 0.0 **** 0.06
781 C 5.978236124845921 93.72215713580454 44.95967787784762 C 0.0 **** -0.24
782 H 6.3978575371540956 93.5054679352287 43.97755329334554 H 0.0 **** 0.06
783 H 4.907054416639426 93.51963242706861 44.95059096545511 H 0.0 **** 0.06
784 H 6.147745139896017 94.77121303092406 45.20317840156021 H 0.0 **** 0.06
785 H 6.4611677484012375 93.09278952445237 45.707385395577276 H 0.0 **** 0.06
786 C 45.80642200896847 123.4713458931947 75.85794102099211 C 0.0 **** -0.24
787 H 45.24370623963671 122.55980237123504 76.05850626661393 H 0.0 **** 0.06
788 H 45.1265955593239 124.32406010385985 75.85318801993088 H 0.0 **** 0.06
789 H 46.295412787278906 123.39020458110089 74.88785591860147 H 0.0 **** 0.06
790 H 46.55947167115289 123.61106692798846 76.63437863183847 H 0.0 **** 0.06
791 C 90.43651733966155 25.351480377994314 78.46686960490268 C 0.0 **** -0.24
792 H 90.24020933110222 26.257941991954873 79.03895923244072 H 0.0 **** 0.06
793 H 91.26102228582111 24.804744466409893 78.9235614717215 H 0.0 **** 0.06
794 H 90.69911922216535 25.61723629613278 77.44279045005177 H 0.0 **** 0.06
795 H 89.54357771877228 24.725813041331023 78.46154862718062 H 0.0 **** 0.06
796 C 136.58289595993256 40.344932882137414 106.53438664354994 C 0.0 **** -0.24
797 H 136.7927746508134 39.87869364515308 105.57130149121242 H 0.0 **** 0.06
798 H 136.734202427569 41.42190152222719 106.45573550350605 H 0.0 **** 0.06
799 H 137.2564039723599 39.93735737812253 107.28838016726942 H 0.0 **** 0.06
800 H 135.55110967332047 40.14173500063271 106.82053297905121 H 0.0 **** 0.06
801 C 6.233604347682444 25.030888514206566 131.2861909304013 C 0.0 **** -0.24
802 H 6.151638814454543 25.20470933319949 130.2130664940837 H 0.0 **** 0.06
803 H 6.749856864935595 25.86977307170389 131.75243236715488 H 0.0 **** 0.06
804 H 6.795261272081774 24.11338737756668 131.46362332698072 H 0.0 **** 0.06
805 H 5.236343716761297 24.933629599662765 131.71542979805565 H 0.0 **** 0.06
806 C 69.04309716856778 35.94128692904388 62.1065809588529 C 0.0 **** -0.24
807 H 70.02569813450543 36.12654697219756 61.67318149006928 H 0.0 **** 0.06
808 H 68.91772058110763 36.55541379920237 62.99843799265784 H 0.0 **** 0.06
809 H 68.95746601353281 34.888449007895304 62.37607436131941 H 0.0 **** 0.06
810 H 68.2719460177014 36.19405751478712 61.37921449453796 H 0.0 **** 0.06
811 C 40.30483833639248 39.12712909711213 57.34943145486456 C 0.0 **** -0.24
812 H 40.94878015170276 39.86514965156922 57.827454100174265 H 0.0 **** 0.06
813 H 40.80166768172984 38.15694332685513 57.34991574959008 H 0.0 **** 0.06
814 H 40.10301788266267 39.43101668686743 56.32196956776714 H 0.0 **** 0.06
815 H 39.36493504712004 39.05518783601795 57.898174927046966 H 0.0 **** 0.06
816 C 31.27928100491512 100.76175057388531 39.102935697011546 C 0.0 **** -0.24
817 H 30.194185855619303 100.76278438014387 39.004938448860216 H 0.0 **** 0.06
818 H 31.69068324082305 99.89622518564732 38.581696638685486 H 0.0 **** 0.06
819 H 31.54843921233057 100.71250408577305 40.15823220704385 H 0.0 **** 0.06
820 H 31.684807368873848 101.67450122681964 38.666671252206555 H 0.0 **** 0.06
821 C 64.10670194558966 28.798543949137525 120.59269408392987 C 0.0 **** -0.24
822 H 65.06652983175078 29.31479014199317 120.61300081463884 H 0.0 **** 0.06
823 H 63.36752508009752 29.42621073880406 120.09604332747017 H 0.0 **** 0.06
824 H 63.78339152250037 28.59375261421792 121.6133796128704 H 0.0 **** 0.06
825 H 64.21042592282093 27.859516118042222 120.04927884831937 H 0.0 **** 0.06
826 C 125.32069482591022 100.09191197164301 126.47279851323259 C 0.0 **** -0.24
827 H 124.88764292944379 100.86226812194553 125.83438443171173 H 0.0 **** 0.06
828 H 124.93133547948138 100.19977896510358 127.48514631516014 H 0.0 **** 0.06
829 H 126.40536759388499 100.19984879559007 126.48685918099773 H 0.0 **** 0.06
830 H 125.05714695440055 99.10873876848194 126.08415215865 H 0.0 **** 0.06
831 C 29.913760356598544 89.04148101882295 29.236609917298097 C 0.0 **** -0.24
832 H 29.918084217999365 89.86367192260573 28.520104827460784 H 0.0 **** 0.06
833 H 29.17581230622597 89.24003116899365 30.013328358304193 H 0.0 **** 0.06
834 H 30.901822678458025 88.94971945066041 29.688711421417338 H 0.0 **** 0.06
835 H 29.661151046174787 88.1144209631928 28.72289092050289 H 0.0 **** 0.06
836 C 77.72506660791116 10.571622023991623 105.40234439485582 C 0.0 **** -0.24
837 H 77.2343845361883 9.632213241607545 105.65816138728617 H 0.0 **** 0.06
838 H 77.59712311848307 11.281652553711723 106.21972569905182 H 0.0 **** 0.06
839 H 77.27909565510475 10.978202807538452 104.49495858285933 H 0.0 **** 0.06
840 H 78.7869869011513 10.394097049473046 105.23818549307578 H 0.0 **** 0.06
841 C 134.45184050015268 9.647535710069462 46.54025834302445 C 0.0 **** -0.24
842 H 133.47251825238817 9.619219970764618 47.016651202480645 H 0.0 **** 0.06
843 H 135.02714059924432 10.483033029239493 46.94135704793918 H 0.0 **** 0.06
844 H 134.32978680486417 9.77346394694024 45.46433220756294 H 0.0 **** 0.06
845 H 134.9798739824687 8.714683817533512 46.738374617767874 H 0.0 **** 0.06
846 C 29.426967285938304 3.5281053734431573 6.390342334704201 C 0.0 **** -0.24
847 H 29.88671711924175 3.14644141534216 5.478355599026031 H 0.0 **** 0.06
848 H 30.16763755012059 4.085709529994563 6.964379153499891 H 0.0 **** 0.06
849 H 29.056635537384096 2.694597144896001 6.986328444835067 H 0.0 **** 0.06
850 H 28.597692096656203 4.186027456208734 6.130022789496024 H 0.0 **** 0.06
851 C 80.11097457078998 47.361131284747444 87.70609007619201 C 0.0 **** -0.24
852 H 80.09924036230888 48.39684918902162 88.04495254571508 H 0.0 **** 0.06
853 H 79.08799381058508 47.0092398242484 87.57770485209339 H 0.0 **** 0.06
854 H 80.6189473317058 46.742978542581625 88.44697533569713 H 0.0 **** 0.06
855 H 80.64020825921816 47.29614492785248 86.75587668054604 H 0.0 **** 0.06
856 C 120.39690072908132 105.66807682269874 58.770449024740856 C 0.0 **** -0.24
857 H 119.50528344653885 105.1434512427879 59.11138832693507 H 0.0 **** 0.06
858 H 121.27115619988716 105.03390663265942 58.92143796080882 H 0.0 **** 0.06
859 H 120.5150870820388 106.59100105124077 59.33929608128446 H 0.0 **** 0.06
860 H 120.29720806310914 105.90396169891872 57.71132262835215 H 0.0 **** 0.06
861 C 18.051812063663306 101.57072606407625 28.976373286794427 C 0.0 **** -0.24
862 H 18.43571782206925 102.46027038761788 29.475989475099176 H 0.0 **** 0.06
863 H 16.969066838822698 101.64685390417763 28.87956231526099 H 0.0 **** 0.06
864 H 18.30349946195645 100.68787225761356 29.564532873912583 H 0.0 **** 0.06
865 H 18.501932730916536 101.4880707299134 27.986486122119175 H 0.0 **** 0.06
866 C 86.7766494123356 89.68654591841414 81.60895759235456 C 0.0 **** -0.24
867 H 85.8488439290307 90.02136950935511 82.07140342587178 H 0.0 **** 0.06
868 H 86.54840066264634 89.00757691085585 80.78630351063919 H 0.0 **** 0.06
869 H 87.3851462667785 89.16801483051415 82.34908062016495 H 0.0 **** 0.06
870 H 87.32433373472843 90.54858517754383 81.22778666933107 H 0.0 **** 0.06
871 C 96.5661093420561 67.60694974945079 66.17305981546554 C 0.0 **** -0.24
872 H 97.238239281572 66.92088981635322 66.68897472874909 H 0.0 **** 0.06
873 H 97.00098943058578 67.88786911386455 65.21301827681611 H 0.0 **** 0.06
874 H 96.42181704205817 68.49923947253433 66.78123971288261 H 0.0 **** 0.06
875 H 95.60517254715651 67.119278977965 66.0082606358302 H 0.0 **** 0.06
876 C 115.67140254642473 48.075184639871466 69.49530580432713 C 0.0 **** -0.24
877 H 114.58827581830624 47.98256537284429 69.4147252222595 H 0.0 **** 0.06
878 H 116.10715411243282 48.115405930937314 68.49636639605959 H 0.0 **** 0.06
879 H 116.07020111317738 47.21425829000799 70.03143131653957 H 0.0 **** 0.06
880 H 115.9191311894748 48.98790286776162 70.03731689486261 H 0.0 **** 0.06
881 C 83.3234436191292 38.600658273998626 111.02415552948185 C 0.0 **** -0.24
882 H 83.04561460947903 39.53084468014562 110.52935424188331 H 0.0 **** 0.06
883 H 83.14847311362763 37.76352383824312 110.347340647333 H 0.0 **** 0.06
884 H 82.719601148543 38.473077720158926 111.9226568036579 H 0.0 **** 0.06
885 H 84.3785255765417 38.63463337128746 111.29614786098739 H 0.0 **** 0.06
886 C 65.3318065622488 10.976543159082375 78.73918306442238 C 0.0 **** -0.24
887 H 64.98437735320746 10.131700880923503 79.33416755894302 H 0.0 **** 0.06
888 H 65.04004390141651 10.830793354848858 77.6982168338779 H 0.0 **** 0.06
889 H 66.4180110830791 11.046157557642044 78.80566375939696 H 0.0 **** 0.06
890 H 64.88479272024661 11.895596100703266 79.11716896716786 H 0.0 **** 0.06
891 C 78.03047463160125 29.31019927969735 73.62286897471608 C 0.0 **** -0.24
892 H 77.3553713752461 28.543776778902995 74.00286526480113 H 0.0 **** 0.06
893 H 79.00433169846914 29.20526229184275 74.10154916462177 H 0.0 **** 0.06
894 H 77.62126775624517 30.296760744585974 73.84264912680128 H 0.0 **** 0.06
895 H 78.14073149146552 29.194746309957402 72.54536026258175 H 0.0 **** 0.06
896 C 137.03629865285137 91.85822805002425 121.63739108287204 C 0.0 **** -0.24
897 H 136.1180086102413 92.33632413729578 121.98002593681363 H 0.0 **** 0.06
898 H 137.21919720762634 90.95950685362777 122.22770664439827 H 0.0 **** 0.06
899 H 137.8714255632719 92.54859870165097 121.75736393168883 H 0.0 **** 0.06
900 H 136.93551509550701 91.5897424469344 120.58598906739621 H 0.0 **** 0.06
901 C 120.7250360445319 116.71177247502544 32.30182891516699 C 0.0 **** -0.24
902 H 120.83520144823495 115.86366204448984 32.97785950557926 H 0.0 **** 0.06
903 H 120.07394948483002 117.45761229529779 32.758836967505005 H 0.0 **** 0.06
904 H 120.28869299528682 116.37391554233386 31.362623702820486 H 0.0 **** 0.06
905 H 121.70328247096147 117.15202225496785 32.1100006110419 H 0.0 **** 0.06
906 C 71.27117240581437 109.4431359186312 35.630614371727745 C 0.0 **** -0.24
907 H 70.6543078836744 109.73443352590024 36.48033838277178 H 0.0 **** 0.06
908 H 71.58840638072171 108.40676573988097 35.751016075795235 H 0.0 **** 0.06
909 H 72.14794895249592 110.08849460275792 35.5802645753796 H 0.0 **** 0.06
910 H 70.69402640636577 109.54284980598587 34.71083845296425 H 0.0 **** 0.06
911 C 83.40688829064516 7.461104619687404 73.14713945842212 C 0.0 **** -0.24
912 H 83.15622906321173 8.464430932286973 73.49113845744347 H 0.0 **** 0.06
913 H 83.77874444993373 6.872245486091856 73.98538522204107 H 0.0 **** 0.06
914 H 84.17487540262894 7.522879845396375 72.37617793246032 H 0.0 **** 0.06
915 H 82.51648306158586 6.98574796926971 72.73500517237646 H 0.0 **** 0.06
916 C 22.245528408673465 73.7404110794468 35.31217251685442 C 0.0 **** -0.24
917 H 22.434631979429668 72.74979205426496 35.72643677559347 H 0.0 **** 0.06
918 H 22.903011198005373 73.90838633416398 34.45804088344744 H 0.0 **** 0.06
919 H 22.438576190560156 74.49553677610169 36.07326760633998 H 0.0 **** 0.06
920 H 21.2062722185251 73.80610537011582 34.989353813177445 H 0.0 **** 0.06
921 C 85.1783562129969 15.619300665812794 72.39215481226006 C 0.0 **** -0.24
922 H 84.31763641571814 16.232513269596332 72.65960351507448 H 0.0 **** 0.06
923 H 84.83982923185134 14.734394887309165 71.85203689222061 H 0.0 **** 0.06
924 H 85.70226034169958 15.314784304630031 73.29815884595718 H 0.0 **** 0.06
925 H 85.85243418575264 16.195947438357727 71.75927771730102 H 0.0 **** 0.06
926 C 99.37389935783935 97.88276342337429 96.35284789057897 C 0.0 **** -0.24
927 H 99.05384123276197 98.22617461145006 97.33591480257178 H 0.0 **** 0.06
928 H 98.50287449014617 97.57024678401501 95.77554107196528 H 0.0 **** 0.06
929 H 100.05569000550447 97.03954509954616 96.46646771136813 H 0.0 **** 0.06
930 H 99.882552676243 98.69367619368626 95.83269283167027 H 0.0 **** 0.06
931 C 94.93908524762256 76.99514678302606 63.506694007739284 C 0.0 **** -0.24
932 H 95.01359227684276 76.24109124191635 62.72309971950838 H 0.0 **** 0.06
933 H 95.53846297800123 77.86391682292125 63.232648276275114 H 0.0 **** 0.06
934 H 95.30774439137173 76.58112974590158 64.44524842558602 H 0.0 **** 0.06
935 H 93.89772387326812 77.29495620209661 63.625192421546174 H 0.0 **** 0.06
936 C 123.38048300612155 70.34757410304849 16.58619405828702 C 0.0 **** -0.24
937 H 123.40447482643992 69.58420802384711 15.808725301544627 H 0.0 **** 0.06
938 H 122.3859107386454 70.3830175204406 17.03018933499112 H 0.0 **** 0.06
939 H 123.61878374311692 71.31751698632638 16.149887266855046 H 0.0 **** 0.06
940 H 124.11343684393142 70.10509171942385 17.35655052798964 H 0.0 **** 0.06
941 C 136.0312973456123 129.35307132693504 88.04582526740529 C 0.0 **** -0.24
942 H 136.76996250743815 129.8043009301371 87.38342532675473 H 0.0 **** 0.06
943 H 135.15168623095002 129.0668803554372 87.4685704614346 H 0.0 **** 0.06
944 H 135.74414705134325 130.0725065581201 88.81276054791299 H 0.0 **** 0.06
945 H 136.45922265291313 128.46999136220137 88.51871182692956 H 0.0 **** 0.06
946 C 36.103508312671124 80.89851459112703 5.500223381219968 C 0.0 **** -0.24
947 H 37.00283960909036 81.49761805799199 5.6453038694398 H 0.0 **** 0.06
948 H 35.26294952972091 81.38009222591376 6.0006951728248055 H 0.0 **** 0.06
949 H 36.25723706282315 79.9044942743983 5.920807696452073 H 0.0 **** 0.06
950 H 35.892681251620274 80.81433061001945 4.433835976011039 H 0.0 **** 0.06
951 C 69.02411458439478 13.009669969928268 115.24387997313553 C 0.0 **** -0.24
952 H 69.96529117304254 12.701118840821266 115.69936093767538 H 0.0 **** 0.06
953 H 69.04117297485809 14.0856577974792 115.07020420385419 H 0.0 **** 0.06
954 H 68.19944032932469 12.762879231194063 115.91297099290321 H 0.0 **** 0.06
955 H 68.89101154677323 12.490580301231716 114.29550742578581 H 0.0 **** 0.06
956 C 126.6393705828443 113.10710687780161 125.21100814588402 C 0.0 **** -0.24
957 H 125.64541205638969 112.70489386321694 125.01490816062534 H 0.0 **** 0.06
958 H 127.07984023201115 113.4555590336729 124.27703939489632 H 0.0 **** 0.06
959 H 127.26727167489582 112.3271814113314 125.64112966534876 H 0.0 **** 0.06
960 H 126.5623330849125 113.93948796476198 125.91031923485767 H 0.0 **** 0.06
961 C 2.5890678998029486 6.59909464368755 111.24463118691932 C 0.0 **** -0.24
962 H 2.6612964466821367 7.153476818040502 110.30857321107123 H 0.0 **** 0.06
963 H 3.540369637508533 6.65567074441725 111.77492664243795 H 0.0 **** 0.06
964 H 2.3531298011731856 5.5558953728340725 111.03083542452458 H 0.0 **** 0.06
965 H 1.8017903829997408 7.030436141871235 111.86243104057144 H 0.0 **** 0.06
966 C 81.33154025331423 132.49861860286248 109.5860912542039 C 0.0 **** -0.24
967 H 80.62487125024461 133.2805733029227 109.30763867043726 H 0.0 **** 0.06
968 H 82.1991713626417 132.95049299107467 110.06874635047615 H 0.0 **** 0.06
969 H 81.65001099103542 131.96304198114143 108.6927407901104 H 0.0 **** 0.06
970 H 80.85223710653278 131.80396895278636 110.27529832082712 H 0.0 **** 0.06
971 C 50.161439077038395 17.665117291053605 10.085075603762107 C 0.0 **** -0.24
972 H 50.55442152882945 17.47921001101875 11.084970282889401 H 0.0 **** 0.06
973 H 49.64410740216063 18.62509418755701 10.07145880950327 H 0.0 **** 0.06
974 H 49.46306389316845 16.871960559323554 9.816865622802538 H 0.0 **** 0.06
975 H 50.983149401826 17.683633360688248 9.370270536105068 H 0.0 **** 0.06
976 C 65.39091596643316 44.75392550266825 59.787899241629134 C 0.0 **** -0.24
977 H 66.44404047132949 44.67906317352006 60.05908824604364 H 0.0 **** 0.06
978 H 64.94110206712206 45.59767010921884 60.31115209966646 H 0.0 **** 0.06
979 H 64.877487959659 43.83473432724845 60.07086982221608 H 0.0 **** 0.06
980 H 65.30296956674603 44.90373296588498 58.71190100302141 H 0.0 **** 0.06
981 C 83.69835708540445 79.87272400167912 74.36722432627887 C 0.0 **** -0.24
982 H 83.62166387899451 80.94548712458082 74.5472091650267 H 0.0 **** 0.06
983 H 83.10675049016999 79.60966507696939 73.48955823655898 H 0.0 **** 0.06
984 H 83.32219530161382 79.33133186716664 75.23434245926241 H 0.0 **** 0.06
985 H 84.74116755445176 79.60598264176684 74.19611201145139 H 0.0 **** 0.06
986 C 116.18609588616638 12.82123522372919 37.24573262730642 C 0.0 **** -0.24
987 H 116.13591905670935 11.834234694283694 36.78753154203132 H 0.0 **** 0.06
988 H 115.27830441857827 13.377334776819396 37.01115851944986 H 0.0 **** 0.06
989 H 117.05169565095176 13.35883467544997 36.85903646103211 H 0.0 **** 0.06
990 H 116.2777890392361 12.715396512023048 38.327396005754025 H 0.0 **** 0.06
991 C 99.64630697995509 98.8507193866865 41.79870436618455 C 0.0 **** -0.24
992 H 99.36313219909817 98.90943055548985 42.849007675869586 H 0.0 **** 0.06
993 H 100.58782008653355 99.37799451468265 41.64562901900365 H 0.0 **** 0.06
994 H 98.8687897445945 99.30937527015152 41.1868850767097 H 0.0 **** 0.06
995 H 99.76444133799191 97.80549179922627 41.51140719054797 H 0.0 **** 0.06
996 C 115.6924210526347 57.124113844801 18.98579601329331 C 0.0 **** -0.24
997 H 116.0372265728738 58.153265131455456 19.083861418691043 H 0.0 **** 0.06
998 H 116.07691390182293 56.699472714886724 18.057898782983045 H 0.0 **** 0.06
999 H 114.6025162193954 57.10659682194368 18.96940433291911 H 0.0 **** 0.06
1000 H 116.05271196484648 56.537749513977104 19.83079268257069 H 0.0 **** 0.06
1001 C 14.82770482205104 106.53932189393527 28.60455416258725 C 0.0 **** -0.24
1002 H 15.165719667101264 107.37569096632444 27.992696497170044 H 0.0 **** 0.06
1003 H 14.268979372752753 106.91822313934455 29.460912046949062 H 0.0 **** 0.06
1004 H 15.691417867230683 105.97470413584688 28.956010610160092 H 0.0 **** 0.06
1005 H 14.185972481377839 105.8900987078635 28.010128513514445 H 0.0 **** 0.06
1006 C 56.62322024000599 97.27699915443864 49.62059366189739 C 0.0 **** -0.24
1007 H 55.84839573631933 97.46087740719521 50.364972494206114 H 0.0 **** 0.06
1008 H 56.33585913289076 96.42855572657496 48.99955710383385 H 0.0 **** 0.06
1009 H 57.5649003430911 97.05718805909595 50.12408323458246 H 0.0 **** 0.06
1010 H 56.74224308742103 98.16116210931887 48.995087107494854 H 0.0 **** 0.06
1011 C 5.272172602879891 56.230801908532314 135.68777015758462 C 0.0 **** -0.24
1012 H 4.492365047149235 55.52044933463368 135.9610802855159 H 0.0 **** 0.06
1013 H 5.720742291171632 56.64272847789702 136.59121564688905 H 0.0 **** 0.06
1014 H 4.83813460782892 57.03739038835815 135.09656535110753 H 0.0 **** 0.06
1015 H 6.037932845572016 55.722232127601146 135.10144505729198 H 0.0 **** 0.06
1016 C 37.469953437404705 110.69182590502194 15.396677494857784 C 0.0 **** -0.24
1017 H 38.23213514871764 111.06660392895955 16.07924360540126 H 0.0 **** 0.06
1018 H 37.495893048749785 111.26662515987212 14.470252607491503 H 0.0 **** 0.06
1019 H 36.48824021749914 110.79202447576958 15.858870561275566 H 0.0 **** 0.06
1020 H 37.6628585964161 109.64133059589815 15.178239210828451 H 0.0 **** 0.06
1021 C 133.00186733701833 50.582028042402214 122.5132269388742 C 0.0 **** -0.24
1022 H 132.95677539204388 49.73457020559708 123.1982401184203 H 0.0 **** 0.06
1023 H 132.8589171601978 51.50743596052294 123.07076211567664 H 0.0 **** 0.06
1024 H 132.21797025360786 50.483938462370716 121.7628245016025 H 0.0 **** 0.06
1025 H 133.97529512187617 50.599139299964904 122.02186488349338 H 0.0 **** 0.06
1026 C 104.98036920546303 123.64272420016457 24.16221865282722 C 0.0 **** -0.24
1027 H 104.33792706713461 123.19087775359407 24.918785242436115 H 0.0 **** 0.06
1028 H 106.02475799351737 123.47678649310193 24.42731452184961 H 0.0 **** 0.06
1029 H 104.78311290885068 124.71332301059284 24.112337010965774 H 0.0 **** 0.06
1030 H 104.77377731134715 123.18980059286487 23.193153122674687 H 0.0 **** 0.06
1031 C 72.20394478933285 5.790182160904891 80.07938824199404 C 0.0 **** -0.24
1032 H 72.58717744736143 5.748277226297546 79.0597835276869 H 0.0 **** 0.06
1033 H 71.68124469629326 6.734123288204984 80.23219137999747 H 0.0 **** 0.06
1034 H 73.03507767037931 5.717047664040194 80.78159589884258 H 0.0 **** 0.06
1035 H 71.51585881170176 4.961553926582525 80.24292704363683 H 0.0 **** 0.06
1036 C 69.06222588162609 38.42568094160774 14.034910204429764 C 0.0 **** -0.24
1037 H 70.06846357260736 38.06599008843559 13.8156561337222 H 0.0 **** 0.06
1038 H 68.60029116762661 37.77834783992845 14.780980764771499 H 0.0 **** 0.06
1039 H 68.46564852331005 38.41402680543423 13.12340889251675 H 0.0 **** 0.06
1040 H 69.11748856805463 39.44326886406837 14.420534215175564 H 0.0 **** 0.06
1041 C 136.5702233067563 34.37850854705488 20.13978717647933 C 0.0 **** -0.24
1042 H 136.88177792990388 35.32748317082127 19.704107349992512 H 0.0 **** 0.06
1043 H 137.44666630806597 33.83745245276265 20.49793948971353 H 0.0 **** 0.06
1044 H 136.05827105531296 33.78282047340798 19.384577513579103 H 0.0 **** 0.06
1045 H 135.89400956749017 34.566727104092365 20.973854816064573 H 0.0 **** 0.06
1046 C 27.756031888321104 88.29705621179917 134.5385562798409 C 0.0 **** -0.24
1047 H 27.512050275382137 89.33045457913613 134.2927863941473 H 0.0 **** 0.06
1048 H 27.755760279710927 88.17199617350187 135.62192234513168 H 0.0 **** 0.06
1049 H 28.74218279370993 88.05274721208735 134.1442815728724 H 0.0 **** 0.06
1050 H 27.013178815777962 87.63329585629128 134.09535700318733 H 0.0 **** 0.06
1051 C 83.24891359054885 21.720059287389745 22.76468327890707 C 0.0 **** -0.24
1052 H 82.85563932709633 21.180455946942516 21.90318362909767 H 0.0 **** 0.06
1053 H 84.18538455530324 21.261969739087135 23.083882570902098 H 0.0 **** 0.06
1054 H 82.52699019169273 21.67891704258551 23.57943779304761 H 0.0 **** 0.06
1055 H 83.42793393403056 22.759678691071883 22.4904128412644 H 0.0 **** 0.06
1056 C 12.750584931547337 51.04191483056468 41.539549009829635 C 0.0 **** -0.24
1057 H 13.397895044630445 50.21985507446155 41.847348462475914 H 0.0 **** 0.06
1058 H 12.60121526817403 51.72020543310683 42.37966604208833 H 0.0 **** 0.06
1059 H 11.78868925090211 50.644983579032186 41.21654080871334 H 0.0 **** 0.06
1060 H 13.216593204731225 51.581749944050216 40.71483182730091 H 0.0 **** 0.06
1061 C 48.01244612863067 109.58772269026682 56.76840061508375 C 0.0 **** -0.24
1062 H 47.95137498831744 108.5096901057403 56.91963934923797 H 0.0 **** 0.06
1063 H 47.64120677789511 109.83627354369563 55.773639373406866 H 0.0 **** 0.06
1064 H 49.0497359678172 109.9082004901862 56.86009458396876 H 0.0 **** 0.06
1065 H 47.4065026057294 110.09468860255294 57.5192714877565 H 0.0 **** 0.06
1066 C 43.9535007348357 38.199706335671614 133.78479179088248 C 0.0 **** -0.24
1067 H 43.952798357058214 39.250647653256465 133.4973846438411 H 0.0 **** 0.06
1068 H 44.92415497858066 37.76061619953672 133.55216913775797 H 0.0 **** 0.06
1069 H 43.17464662181956 37.6719151698274 133.23525036872167 H 0.0 **** 0.06
1070 H 43.76352101187334 38.11507906295295 134.85501747558766 H 0.0 **** 0.06
1071 C 109.81598002296619 98.14237207798251 54.40351910629522 C 0.0 **** -0.24
1072 H 110.7204066943743 97.5351649111901 54.35252921082726 H 0.0 **** 0.06
1073 H 109.18109295973846 97.91879245324334 53.54606786045974 H 0.0 **** 0.06
1074 H 110.08731328322779 99.19842181578043 54.390857444108676 H 0.0 **** 0.06
1075 H 109.27826996191465 97.91627849543045 55.32406765119589 H 0.0 **** 0.06
1076 C 73.22707725348866 35.15704606151132 113.45447468854138 C 0.0 **** -0.24
1077 H 74.04527460701829 34.92309014301955 114.13476707326299 H 0.0 **** 0.06
1078 H 72.34206317744852 35.42568087698706 114.03018679137381 H 0.0 **** 0.06
1079 H 73.00919726494776 34.28639279414989 112.83539529837878 H 0.0 **** 0.06
1080 H 73.51408107969482 35.99340023277986 112.81595794366444 H 0.0 **** 0.06
1081 C 44.10741423748823 88.14142985865936 59.43255782347438 C 0.0 **** -0.24
1082 H 43.41870439051303 88.94514434179132 59.173780316046134 H 0.0 **** 0.06
1083 H 45.13179908507155 88.51257186542475 59.38689156249836 H 0.0 **** 0.06
1084 H 43.986934263962155 87.31815342137364 58.729042006030795 H 0.0 **** 0.06
1085 H 43.892830678849805 87.79066500625288 60.44250783307098 H 0.0 **** 0.06
1086 C 0.31593647911353884 55.848113819816945 9.986151838922183 C 0.0 **** -0.24
1087 H -0.4740710731152227 55.680066047224784 10.717677673493313 H 0.0 **** 0.06
1088 H -0.05144633435984858 55.595739999922046 8.991400417990576 H 0.0 **** 0.06
1089 H 1.1735397253269682 55.21958667036387 10.227505081671097 H 0.0 **** 0.06
1090 H 0.6155678384480723 56.89607375667879 10.009023230071989 H 0.0 **** 0.06
1091 C 79.9836502204524 61.1602602606052 85.13790868864646 C 0.0 **** -0.24
1092 H 80.78503890154903 60.422697254595604 85.1798973827319 H 0.0 **** 0.06
1093 H 80.27582561301156 61.97748887518139 84.4780685434244 H 0.0 **** 0.06
1094 H 79.796419152179 61.549560842064 86.13911280805775 H 0.0 **** 0.06
1095 H 79.07727257023856 60.69020995298952 84.75675214740994 H 0.0 **** 0.06
1096 C 133.19465483658385 63.90849390527944 95.63244815267967 C 0.0 **** -0.24
1097 H 133.1460802753683 64.17718917192272 94.5769130013263 H 0.0 **** 0.06
1098 H 132.33879469013493 63.282464217562904 95.88750376372688 H 0.0 **** 0.06
1099 H 133.17653756261632 64.8149447977687 96.23806076455331 H 0.0 **** 0.06
1100 H 134.11633262628507 63.3604809438404 95.82630602549487 H 0.0 **** 0.06
1101 C 19.478999647016934 11.719865537979388 72.1670817541804 C 0.0 **** -0.24
1102 H 20.319137543174406 11.15832996957647 71.75909871579603 H 0.0 **** 0.06
1103 H 19.783148913092276 12.751471033033823 72.34362460520333 H 0.0 **** 0.06
1104 H 19.16324990494732 11.267342374802041 73.10683114945647 H 0.0 **** 0.06
1105 H 18.65145967155422 11.700559309062783 71.45781880774891 H 0.0 **** 0.06
1106 C 3.4834110558653286 16.570910251553414 51.208746258550846 C 0.0 **** -0.24
1107 H 4.298278273923806 16.535080823895726 50.485563889186324 H 0.0 **** 0.06
1108 H 3.801826763005465 17.1304897080783 52.08821389610475 H 0.0 **** 0.06
1109 H 3.2129203037212015 15.556097949689104 51.50169649411012 H 0.0 **** 0.06
1110 H 2.619209805374343 17.06120124523156 50.75886285972604 H 0.0 **** 0.06
1111 C 20.091817475077008 74.98774215902644 128.89147262544816 C 0.0 **** -0.24
1112 H 19.308833463140644 75.73190339807051 129.04048333931172 H 0.0 **** 0.06
1113 H 19.818584008739023 74.33474020361449 128.06139788594447 H 0.0 **** 0.06
1114 H 20.205446984197266 74.39443217284577 129.7984145351582 H 0.0 **** 0.06
1115 H 21.032483737461774 75.48914138032944 128.66473302752644 H 0.0 **** 0.06
1116 C 41.30556845842881 80.33673394548526 88.99198533111479 C 0.0 **** -0.24
1117 H 40.83309883947291 81.16458261807321 88.46384229347859 H 0.0 **** 0.06
1118 H 41.95102866624151 80.72874873510204 89.77893301376577 H 0.0 **** 0.06
1119 H 41.900805375860614 79.75067707915031 88.29130319758121 H 0.0 **** 0.06
1120 H 40.53686305789236 79.70256438594177 89.43514343165594 H 0.0 **** 0.06
1121 C 72.55092727442178 98.16368915156107 72.30787839447586 C 0.0 **** -0.24
1122 H 71.4931947331273 97.95680278754196 72.47180820413757 H 0.0 **** 0.06
1123 H 72.6700953730043 99.19075561733916 71.96209446541633 H 0.0 **** 0.06
1124 H 72.94306490739308 97.47923213897366 71.55603551884855 H 0.0 **** 0.06
1125 H 73.09586079994699 98.02985316963259 73.24203278056422 H 0.0 **** 0.06
1126 C 35.72073077464505 34.8449492488881 43.23047574201375 C 0.0 **** -0.24
1127 H 34.98778533306271 35.63826977594229 43.37779033919492 H 0.0 **** 0.06
1128 H 36.63718771044112 35.09350845764109 43.76778493772746 H 0.0 **** 0.06
1129 H 35.93872527568202 34.7436366183002 42.1672075629697 H 0.0 **** 0.06
1130 H 35.31987388710657 33.905849585306385 43.61097095292397 H 0.0 **** 0.06
1131 C 69.66808642132148 71.89464731585588 37.54293007409814 C 0.0 **** -0.24
1132 H 70.48057777496776 72.54144031042802 37.21408723076067 H 0.0 **** 0.06
1133 H 69.0156582388448 72.44640708228877 38.22062598495597 H 0.0 **** 0.06
1134 H 70.08058274016041 71.02764235912963 38.06064943473373 H 0.0 **** 0.06
1135 H 69.0956796586553 71.56160499128237 36.677219749466644 H 0.0 **** 0.06
1136 C 112.13889646884613 120.21287103239962 117.71090261988167 C 0.0 **** -0.24
1137 H 112.43131210394111 119.51938952350247 118.49935525259164 H 0.0 **** 0.06
1138 H 113.01084935751666 120.46543768182306 117.1078103417612 H 0.0 **** 0.06
1139 H 111.73027535306372 121.11984880134145 118.15794426623654 H 0.0 **** 0.06
1140 H 111.38206428088446 119.74756749747934 117.0799995479149 H 0.0 **** 0.06
1141 C 45.031473040783055 62.2604227932877 98.39341428451208 C 0.0 **** -0.24
1142 H 46.06229317763268 62.34491089074872 98.73755476661107 H 0.0 **** 0.06
1143 H 44.94630277069666 61.41798921220733 97.70672529641334 H 0.0 **** 0.06
1144 H 44.74320753889043 63.17846442640257 97.88080659030011 H 0.0 **** 0.06
1145 H 44.3754361431192 62.10061414808921 99.24888949271583 H 0.0 **** 0.06
1146 C 2.8990179095702615 35.341356368079005 95.88725118146283 C 0.0 **** -0.24
1147 H 2.7458796522499824 35.13049352157111 96.94632231357018 H 0.0 **** 0.06
1148 H 2.126478150694169 34.84205309763942 95.30249514257565 H 0.0 **** 0.06
1149 H 3.8795048913141272 34.97696573616756 95.58281769416304 H 0.0 **** 0.06
1150 H 2.84385169962232 36.41700301956976 95.72078792180875 H 0.0 **** 0.06
1151 C 81.57596696307098 0.9617433380253715 39.85486372765726 C 0.0 **** -0.24
1152 H 82.18891504814428 0.2818660630236991 39.26271372983051 H 0.0 **** 0.06
1153 H 81.56904221616193 1.9458518385088155 39.385448554820705 H 0.0 **** 0.06
1154 H 81.98781933972901 1.0403144484720315 40.860730138914136 H 0.0 **** 0.06
1155 H 80.5569969858202 0.5776327644352932 39.909116341949456 H 0.0 **** 0.06
1156 C 52.7836628323072 133.69193254874224 40.55964798719694 C 0.0 **** -0.24
1157 H 53.6472555558008 133.16780127957065 40.970023571351334 H 0.0 **** 0.06
1158 H 53.115037230783955 134.59909261071226 40.05364331955852 H 0.0 **** 0.06
1159 H 52.10068633627745 133.9548200487708 41.36791425842675 H 0.0 **** 0.06
1160 H 52.27084699646106 133.04547486690672 39.84684963835289 H 0.0 **** 0.06
1161 C 107.10274934905371 66.89393423565501 49.16465749466701 C 0.0 **** -0.24
1162 H 106.89485913677295 65.85510951315155 48.9074611941701 H 0.0 **** 0.06
1163 H 106.88087214322408 67.05892437752021 50.218913066797384 H 0.0 **** 0.06
1164 H 106.48247275682631 67.55069015293327 48.555362295709884 H 0.0 **** 0.06
1165 H 108.15503424209035 67.11071002404687 48.975951620757556 H 0.0 **** 0.06
1166 C 36.83563719582105 18.877884038675496 115.0414249028384 C 0.0 **** -0.24
1167 H 36.10396636800621 18.324285963700994 115.63031118729432 H 0.0 **** 0.06
1168 H 37.056367329468344 19.82471661664359 115.53280181787306 H 0.0 **** 0.06
1169 H 36.43112881325379 19.06860851307951 114.04790783820681 H 0.0 **** 0.06
1170 H 37.74932945673558 18.29080828591362 114.95512588318277 H 0.0 **** 0.06
1171 C 90.50006978609998 92.68570501174712 109.42499836183534 C 0.0 **** -0.24
1172 H 90.79539789169053 93.41293845127406 110.18220966594185 H 0.0 **** 0.06
1173 H 89.45421486550856 92.41725243697952 109.5689868785665 H 0.0 **** 0.06
1174 H 91.12034208776353 91.79397756110721 109.51786658942314 H 0.0 **** 0.06
1175 H 90.63261851948343 93.11918536936305 108.43383759581201 H 0.0 **** 0.06
1176 C 29.926458498011442 39.09980285804539 15.359293706691545 C 0.0 **** -0.24
1177 H 29.45044637717899 38.85038937547708 16.307971454387335 H 0.0 **** 0.06
1178 H 31.009534137538388 39.096834667981 15.484215429894952 H 0.0 **** 0.06
1179 H 29.600562308597084 40.088562363600346 15.03900274724483 H 0.0 **** 0.06
1180 H 29.64511924702319 38.36318972628996 14.606941816236137 H 0.0 **** 0.06
1181 C 111.89440827717988 47.6446691136228 52.533841908395786 C 0.0 **** -0.24
1182 H 111.21663988210076 48.151880498630334 53.221558960862794 H 0.0 **** 0.06
1183 H 112.52619089124755 48.380909361706955 52.038348191867044 H 0.0 **** 0.06
1184 H 111.31456377074801 47.10113862946724 51.78801953447589 H 0.0 **** 0.06
1185 H 112.51823198592632 46.94468860612915 53.08967041618341 H 0.0 **** 0.06
1186 C 100.86123711547617 89.85816717439323 1.5639425307628017 C 0.0 **** -0.24
1187 H 100.43481252900403 90.842055277415 1.369396091566614 H 0.0 **** 0.06
1188 H 101.90348503397246 89.84522821273009 1.2442537026126388 H 0.0 **** 0.06
1189 H 100.30090362977518 89.10464585632172 1.0107101587667557 H 0.0 **** 0.06
1190 H 100.80479408905381 89.64340053523162 2.6313105833521035 H 0.0 **** 0.06
1191 C 94.85139067231887 0.9349844566654042 0.7277681807868035 C 0.0 **** -0.24
1192 H 95.91122327849564 0.6981965859079367 0.6314746949769514 H 0.0 **** 0.06
1193 H 94.31971243565175 0.5828185888347264 -0.15632091310525098 H 0.0 **** 0.06
1194 H 94.72747840079978 2.0133130096079697 0.8218654266504686 H 0.0 **** 0.06
1195 H 94.44954750046571 0.4441787749705952 1.613608382269092 H 0.0 **** 0.06
1196 C 135.95846784222297 49.13985375638214 52.788461713732346 C 0.0 **** -0.24
1197 H 136.95255832223603 49.57993083347941 52.867849052049905 H 0.0 **** 0.06
1198 H 136.00552156186166 48.24327253243689 52.17069063951487 H 0.0 **** 0.06
1199 H 135.27832242505676 49.86022986952236 52.33344902058596 H 0.0 **** 0.06
1200 H 135.59754802820086 48.87782131910308 53.78263922048038 H 0.0 **** 0.06
1201 C 70.37520631820185 17.089504331724754 111.70076967284092 C 0.0 **** -0.24
1202 H 70.14425143130039 16.09281782119797 111.32297612558318 H 0.0 **** 0.06
1203 H 70.25372070624381 17.10253450890758 112.78399611821078 H 0.0 **** 0.06
1204 H 69.69753262903295 17.81440029753753 111.25060943781455 H 0.0 **** 0.06
1205 H 71.40358628522623 17.34540423548509 111.44684267948765 H 0.0 **** 0.06
1206 C 12.215117851427276 71.28489446685509 100.62593756560042 C 0.0 **** -0.24
1207 H 11.483059426634547 71.45407439581868 101.41594117379054 H 0.0 **** 0.06
1208 H 11.701984792508906 70.96786399747248 99.7180955077425 H 0.0 **** 0.06
1209 H 12.913299452349385 70.50895649545124 100.93855832609641 H 0.0 **** 0.06
1210 H 12.760555184410741 72.20812562708926 100.43264410602328 H 0.0 **** 0.06
1211 C 42.00226241684449 34.653586865889494 122.34975951056538 C 0.0 **** -0.24
1212 H 42.86084899812089 34.19259542029108 122.83760478488045 H 0.0 **** 0.06
1213 H 41.28588679195982 33.8801941875983 122.06924591041712 H 0.0 **** 0.06
1214 H 42.33322282250004 35.18350205394411 121.45650469137757 H 0.0 **** 0.06
1215 H 41.52824899006469 35.35653137389243 123.0346991759697 H 0.0 **** 0.06
1216 C 115.14755106141448 38.69856603838214 68.3506528384849 C 0.0 **** -0.24
1217 H 114.95215889604464 39.337718053033186 69.21180710687156 H 0.0 **** 0.06
1218 H 114.24866685063142 38.131110612477826 68.10917698743253 H 0.0 **** 0.06
1219 H 115.96042289674813 38.01173099799681 68.58474263178607 H 0.0 **** 0.06
1220 H 115.42824869323616 39.31662008256802 67.49688051856276 H 0.0 **** 0.06
1221 C 79.28262580067258 7.053446016275103 120.15946153694946 C 0.0 **** -0.24
1222 H 79.81427177135919 6.857523666347042 121.09087502079791 H 0.0 **** 0.06
1223 H 79.97440728375284 6.967168511860727 119.32230290488424 H 0.0 **** 0.06
1224 H 78.8649745221403 8.059647382537772 120.18535084055644 H 0.0 **** 0.06
1225 H 78.4770299598299 6.3276830555070305 120.04212189350885 H 0.0 **** 0.06
1226 C 13.492050483377142 114.66990955981643 135.31728496398443 C 0.0 **** -0.24
1227 H 14.119749716333843 113.81819988541585 135.05398020688776 H 0.0 **** 0.06
1228 H 14.122757146312807 115.52718655526544 135.55280422866127 H 0.0 **** 0.06
1229 H 12.882394887227221 114.41608810170868 136.1842998255921 H 0.0 **** 0.06
1230 H 12.842701412302787 114.9159290624228 134.47589959265886 H 0.0 **** 0.06
1231 C 116.29067220667977 8.787725374368762 113.08056502207421 C 0.0 **** -0.24
1232 H 117.11787705820674 8.900815008389486 113.78121894816022 H 0.0 **** 0.06
1233 H 116.54531644641054 8.03127540291851 112.33801210840898 H 0.0 **** 0.06
1234 H 116.10570818407984 9.739043074450905 112.58178049836002 H 0.0 **** 0.06
1235 H 115.39577907430089 8.48045094781449 113.62200087629398 H 0.0 **** 0.06
1236 C 54.29593842181757 68.76745198877762 49.30647482773624 C 0.0 **** -0.24
1237 H 55.01014380436516 68.15400860557395 48.756349394359304 H 0.0 **** 0.06
1238 H 53.96829901050654 68.23211615316393 50.197771092830905 H 0.0 **** 0.06
1239 H 53.43486206378071 68.97988472544037 48.67303668002886 H 0.0 **** 0.06
1240 H 54.77183714239965 69.70352982688917 49.598720874462984 H 0.0 **** 0.06
1241 C 36.649139725215775 54.256698297102645 37.13293912597841 C 0.0 **** -0.24
1242 H 36.397295423068016 53.42754074478471 37.79437565184955 H 0.0 **** 0.06
1243 H 37.712779372784226 54.21930477856951 36.894059313097756 H 0.0 **** 0.06
1244 H 36.42103696473201 55.199837011548695 37.62927222772063 H 0.0 **** 0.06
1245 H 36.06712528710534 54.17889389231509 36.21488808842804 H 0.0 **** 0.06
1246 C 77.73895410427207 2.1553965472906995 122.56246717977068 C 0.0 **** -0.24
1247 H 76.7010252150211 2.263163361765681 122.8782804500612 H 0.0 **** 0.06
1248 H 78.13942086504645 3.132130405167242 122.29109215743621 H 0.0 **** 0.06
1249 H 77.78927571480007 1.488662277697447 121.7014322053763 H 0.0 **** 0.06
1250 H 78.32481911161462 1.7362251768302066 123.38024685598857 H 0.0 **** 0.06
1251 C 1.753545342226488 65.58231901453553 90.63909897619249 C 0.0 **** -0.24
1252 H 1.5273923624229724 66.64513760252561 90.551101489134 H 0.0 **** 0.06
1253 H 0.8433432676153814 65.03645522504803 90.88943677791411 H 0.0 **** 0.06
1254 H 2.495332876755924 65.43223105952848 91.42361725373064 H 0.0 **** 0.06
1255 H 2.1489924204736894 65.21573510176688 89.69116967395371 H 0.0 **** 0.06
1256 C 41.17805837108872 55.4127023664105 52.110133799671985 C 0.0 **** -0.24
1257 H 42.248716517918176 55.37914485642639 52.311752467444535 H 0.0 **** 0.06
1258 H 40.65712414597313 55.81213989471139 52.98065966683242 H 0.0 **** 0.06
1259 H 40.81670252466823 54.40684981177016 51.89922246257731 H 0.0 **** 0.06
1260 H 40.991216287059174 56.05437077738843 51.24800861646412 H 0.0 **** 0.06
1261 C 46.78674003392676 30.61868648197003 131.3764594780542 C 0.0 **** -0.24
1262 H 46.54671914674003 31.11979903529725 130.43831221944689 H 0.0 **** 0.06
1263 H 45.937844684998325 30.695828580311428 132.05687913675044 H 0.0 **** 0.06
1264 H 47.65911698351563 31.09214756226578 131.82808894440743 H 0.0 **** 0.06
1265 H 47.00329723525158 29.567963917410225 131.18267312746903 H 0.0 **** 0.06
1266 C 100.77448245491757 65.75006068305572 52.183740605679304 C 0.0 **** -0.24
1267 H 100.45913116784209 64.97061665568344 51.48934757227124 H 0.0 **** 0.06
1268 H 101.85506451538402 65.70212513069204 52.315977607536354 H 0.0 **** 0.06
1269 H 100.28230032490848 65.60023468081697 53.145398572687725 H 0.0 **** 0.06
1270 H 100.49905217587718 66.72571871363613 51.78327258875953 H 0.0 **** 0.06
1271 C 68.48926858558525 37.747863621084946 116.7839163843066 C 0.0 **** -0.24
1272 H 69.35096735848796 37.67468911819182 116.1207665086009 H 0.0 **** 0.06
1273 H 68.74600143766152 37.33129398897552 117.75800829739214 H 0.0 **** 0.06
1274 H 67.65441004703221 37.19037243554072 116.35860369100865 H 0.0 **** 0.06
1275 H 68.2068726265068 38.79432558298964 116.89841502581379 H 0.0 **** 0.06
1276 C 73.63681352909151 53.80345180055984 126.6389026026472 C 0.0 **** -0.24
1277 H 74.71523626325813 53.7493310226499 126.49673256856379 H 0.0 **** 0.06
1278 H 73.19611207424077 52.82327028704323 126.4552357354026 H 0.0 **** 0.06
1279 H 73.21344244859301 54.52807706082169 125.94258925935881 H 0.0 **** 0.06
1280 H 73.4202424628819 54.11336659998426 127.6611598333032 H 0.0 **** 0.06
1281 C 16.851551811753836 116.11551117234319 109.81598245327856 C 0.0 **** -0.24
1282 H 15.9438100401332 115.57363039969823 110.08137115730196 H 0.0 **** 0.06
1283 H 16.584514016823448 117.06071107107311 109.34289889964015 H 0.0 **** 0.06
1284 H 17.442380068465752 115.51615397637005 109.12278044913023 H 0.0 **** 0.06
1285 H 17.433931293920296 116.31081234873045 110.71546984704972 H 0.0 **** 0.06
1286 C 94.14608965345295 53.19726974605807 111.61225521890788 C 0.0 **** -0.24
1287 H 94.261565808499 54.045957440677554 110.93796260845403 H 0.0 **** 0.06
1288 H 93.09958568125192 53.10654366170063 111.90607719086898 H 0.0 **** 0.06
1289 H 94.76118854855405 53.35085043611926 112.49827064182685 H 0.0 **** 0.06
1290 H 94.46140944618165 52.2853036125929 111.10437599557443 H 0.0 **** 0.06
1291 C 126.70645242926304 122.47919654931991 133.13716067194963 C 0.0 **** -0.24
1292 H 127.33220109002872 121.81853414883915 132.53656854923548 H 0.0 **** 0.06
1293 H 126.94541710416325 122.34457083237484 134.19288598673262 H 0.0 **** 0.06
1294 H 125.6567762790936 122.23935183347409 132.9679432135597 H 0.0 **** 0.06
1295 H 126.8938385487395 123.51425170210639 132.8515939895998 H 0.0 **** 0.06
1296 C 60.173602576376965 103.91020437937343 49.248812750726714 C 0.0 **** -0.24
1297 H 59.167900119143795 103.51190705077019 49.384867482158356 H 0.0 **** 0.06
1298 H 60.66622500099382 103.38037642562377 48.43390691656842 H 0.0 **** 0.06
1299 H 60.744844178537704 103.77753731275024 50.16760301123712 H 0.0 **** 0.06
1300 H 60.11345024164926 104.97197255809165 49.00916486949815 H 0.0 **** 0.06
1301 C 41.87082189717922 32.06401843257419 81.14659549036834 C 0.0 **** -0.24
1302 H 42.23394035560691 32.118156259371915 82.17282457532475 H 0.0 **** 0.06
1303 H 41.547447266692956 33.05405901096168 80.82431985210519 H 0.0 **** 0.06
1304 H 41.03182725901914 31.37117158276675 81.0942195766966 H 0.0 **** 0.06
1305 H 42.67312795155095 31.713493497619936 80.49675446221622 H 0.0 **** 0.06
1306 C 21.824311368665946 45.47321004179736 36.16609911978932 C 0.0 **** -0.24
1307 H 20.996637290351345 45.05824294810026 35.591484499680476 H 0.0 **** 0.06
1308 H 22.52036522611941 44.67663147962577 36.42875608182271 H 0.0 **** 0.06
1309 H 21.438555556258393 45.933971137395815 37.076674118123904 H 0.0 **** 0.06
1310 H 22.339928595171273 46.224841383765465 35.568961589519546 H 0.0 **** 0.06
1311 C 45.84881397978151 9.31994804670424 120.45298796343104 C 0.0 **** -0.24
1312 H 46.36383016802358 9.546607960410967 119.51953219884888 H 0.0 **** 0.06
1313 H 45.67519183704998 10.243032146832377 121.006409300304 H 0.0 **** 0.06
1314 H 46.463504410505536 8.647540910163627 121.05249479271058 H 0.0 **** 0.06
1315 H 44.89430291140202 8.842159552011196 120.23503893350902 H 0.0 **** 0.06
1316 C 67.72029907845968 9.13908862831488 76.92753491949136 C 0.0 **** -0.24
1317 H 66.93689954347747 9.843995331394922 76.64645158568777 H 0.0 **** 0.06
1318 H 67.87306763801172 9.179048567961729 78.00649788379332 H 0.0 **** 0.06
1319 H 68.64711383438737 9.404667133963699 76.41856188572669 H 0.0 **** 0.06
1320 H 67.42177032503292 8.131189079133208 76.63877523382837 H 0.0 **** 0.06
1321 C 121.79909598084208 42.509324789593926 50.882330869388 C 0.0 **** -0.24
1322 H 122.52757403910164 42.13298443601173 51.600100115777195 H 0.0 **** 0.06
1323 H 122.2915461763979 43.19203905831871 50.188824444441536 H 0.0 **** 0.06
1324 H 121.0066023666651 43.039296077472265 51.41280280074312 H 0.0 **** 0.06
1325 H 121.37020791571581 41.674874611446036 50.32908055727148 H 0.0 **** 0.06
1326 C 13.635823473144342 79.9377515797647 133.98516707801525 C 0.0 **** -0.24
1327 H 12.56345878718193 79.99758335946058 134.17005132000733 H 0.0 **** 0.06
1328 H 14.167760607289324 80.50303198954833 134.75122782182854 H 0.0 **** 0.06
1329 H 13.858650928476294 80.35614360998869 133.00337885254922 H 0.0 **** 0.06
1330 H 13.951676403242601 78.89549652808708 134.01718814064074 H 0.0 **** 0.06
1331 C 129.62660532418172 91.53040426621973 131.28431361595605 C 0.0 **** -0.24
1332 H 130.6508001530782 91.79443661580106 131.54556996315532 H 0.0 **** 0.06
1333 H 129.59868519330703 91.15630449741127 130.2606975206969 H 0.0 **** 0.06
1334 H 128.99139781082 92.41113251331694 131.36704894629477 H 0.0 **** 0.06
1335 H 129.26630062726392 90.75766109258797 131.9636504918462 H 0.0 **** 0.06
1336 C 86.51245771569546 134.71931104401472 105.41026829179827 C 0.0 **** -0.24
1337 H 86.29775936345465 135.73799916812047 105.73045589862606 H 0.0 **** 0.06
1338 H 86.17128603194789 134.5819581871828 104.38411180074574 H 0.0 **** 0.06
1339 H 85.99442939188538 134.01613118203824 106.06239465872301 H 0.0 **** 0.06
1340 H 87.58600362987232 134.5402347331234 105.46309700060371 H 0.0 **** 0.06
1341 C 42.06544408952627 4.333650290886965 118.28747745654363 C 0.0 **** -0.24
1342 H 43.06554245225277 4.493075493328007 117.88299014712103 H 0.0 **** 0.06
1343 H 41.836908074904045 5.1167086153983234 119.00995027860522 H 0.0 **** 0.06
1344 H 42.02376226892309 3.360507939972649 118.7787388373168 H 0.0 **** 0.06
1345 H 41.33676168038684 4.362943817260401 117.4769264517029 H 0.0 **** 0.06
1346 C 129.34743481652237 5.991672959167261 92.37264466456412 C 0.0 **** -0.24
1347 H 130.14245488523056 5.308662681370947 92.07348398780024 H 0.0 **** 0.06
1348 H 129.7558771249443 6.995938234106859 92.48997858219701 H 0.0 **** 0.06
1349 H 128.92149081998937 5.659986687118646 93.31935474274934 H 0.0 **** 0.06
1350 H 128.56997935699164 6.002382918970454 91.60871968887938 H 0.0 **** 0.06
1351 C 27.03193055009112 79.2184874750601 101.85556109636377 C 0.0 **** -0.24
1352 H 26.587051916711516 79.76296682062477 102.68820645049982 H 0.0 **** 0.06
1353 H 27.95973013063309 79.70864257497118 101.5560212781503 H 0.0 **** 0.06
1354 H 26.338193434223 79.20922166950255 101.01523437828143 H 0.0 **** 0.06
1355 H 27.244968550794 78.19414656610614 102.1626956198761 H 0.0 **** 0.06
1356 C 120.07555441926976 29.195454708459252 89.05773252204094 C 0.0 **** -0.24
1357 H 120.52163785886228 29.72581051494668 88.21634298680476 H 0.0 **** 0.06
1358 H 120.72392334118932 28.369580594818835 89.35032566864305 H 0.0 **** 0.06
1359 H 119.10066180463033 28.805755049684812 88.76545934622021 H 0.0 **** 0.06
1360 H 119.9567387274126 29.88076842428668 89.89669556191186 H 0.0 **** 0.06
1361 C 77.33754025332092 126.56360890050968 116.36463712882588 C 0.0 **** -0.24
1362 H 76.61151978501039 127.35800809045716 116.53499036902394 H 0.0 **** 0.06
1363 H 77.13025057301002 125.73190133571208 117.03794357794331 H 0.0 **** 0.06
1364 H 78.34254906820274 126.94323499573508 116.5529279720648 H 0.0 **** 0.06
1365 H 77.26602123668602 126.22189399522745 115.33190917339942 H 0.0 **** 0.06
1366 C 62.03817305054234 103.3080590309572 16.35163112923442 C 0.0 **** -0.24
1367 H 62.96850460455032 103.43251876690672 15.797832414046297 H 0.0 **** 0.06
1368 H 61.422887575309474 104.20031272386842 16.23154682492742 H 0.0 **** 0.06
1369 H 62.26081341087429 103.15999845004399 17.407567359100597 H 0.0 **** 0.06
1370 H 61.50088434697767 102.44149064954489 15.968354365112958 H 0.0 **** 0.06
1371 C 102.41884521182354 136.55721203117042 98.98273381357515 C 0.0 **** -0.24
1372 H 101.8976176638961 136.44247762701946 98.03250441674513 H 0.0 **** 0.06
1373 H 103.04149137885206 137.45164493833977 98.94946792008727 H 0.0 **** 0.06
1374 H 103.04486922076721 135.68399731117583 99.16084042080428 H 0.0 **** 0.06
1375 H 101.68938419917698 136.65152276728344 99.78757927049298 H 0.0 **** 0.06
1376 C 43.89691314252099 117.55079250266184 114.29213614115159 C 0.0 **** -0.24
1377 H 44.305963378650404 118.55137188373328 114.43042151727062 H 0.0 **** 0.06
1378 H 42.82762819087452 117.5634293878818 114.50478865871301 H 0.0 **** 0.06
1379 H 44.394522401047226 116.85742906947453 114.97005739756955 H 0.0 **** 0.06
1380 H 44.0589226916363 117.23207726086943 113.26212517399512 H 0.0 **** 0.06
1381 C 100.92786237529378 128.5143872558529 73.81196016088306 C 0.0 **** -0.24
1382 H 100.81481616825397 127.65504754376968 74.47200547797739 H 0.0 **** 0.06
1383 H 101.90637766352452 128.96882458766 73.97119791515661 H 0.0 **** 0.06
1384 H 100.1489437563157 129.24482216877976 74.03120818225307 H 0.0 **** 0.06
1385 H 100.84117187448271 128.190680508138 72.77471247388455 H 0.0 **** 0.06
1386 C 63.2353464989763 62.839368109868644 93.428640524409 C 0.0 **** -0.24
1387 H 62.38328659457238 63.18617271608906 92.84459813466925 H 0.0 **** 0.06
1388 H 63.98278661111061 63.63076512979427 93.4869252566924 H 0.0 **** 0.06
1389 H 63.67105155148215 61.96235447664226 92.94951290343236 H 0.0 **** 0.06
1390 H 62.90467874957261 62.57727412425383 94.43345574366737 H 0.0 **** 0.06
1391 C 44.63327070429699 32.582484471304724 100.53563429691144 C 0.0 **** -0.24
1392 H 45.45011820403323 32.136162076461886 101.10293452764722 H 0.0 **** 0.06
1393 H 43.6899989061013 32.39842973337653 101.05061222285565 H 0.0 **** 0.06
1394 H 44.59778993595007 32.14005085430614 99.54010143909358 H 0.0 **** 0.06
1395 H 44.79656023913316 33.65694133749116 100.44950037415936 H 0.0 **** 0.06
1396 C 27.84154131701274 51.20281224731485 43.92976090210237 C 0.0 **** -0.24
1397 H 27.545730346309142 50.28656243242847 43.41927173896076 H 0.0 **** 0.06
1398 H 28.851029545962433 51.088962934923785 44.32480762206714 H 0.0 **** 0.06
1399 H 27.150169202136794 51.401333006426 44.74901860964971 H 0.0 **** 0.06
1400 H 27.818411594137842 52.034938157244824 43.22580311403661 H 0.0 **** 0.06
1401 C 31.661670584923854 50.17148761517994 48.147004870110365 C 0.0 **** -0.24
1402 H 31.885983024145048 49.231990482805514 47.64025818123723 H 0.0 **** 0.06
1403 H 30.58034668010751 50.29386897927397 48.22218837455536 H 0.0 **** 0.06
1404 H 32.084008137293466 50.99983242259745 47.5793175679387 H 0.0 **** 0.06
1405 H 32.096876693738324 50.15657649861052 49.146655009669516 H 0.0 **** 0.06
1406 C 120.20436039041468 30.88871601529705 67.2677142518592 C 0.0 **** -0.24
1407 H 120.99499784468989 30.332769955183863 67.77121543080807 H 0.0 **** 0.06
1408 H 120.64121922186962 31.721338238404996 66.71606067228187 H 0.0 **** 0.06
1409 H 119.5016836738669 31.27222985366275 68.00808825926156 H 0.0 **** 0.06
1410 H 119.6792586784772 30.22891410468202 66.57682301109993 H 0.0 **** 0.06
1411 C 49.4671255624729 39.12607056504834 136.80819609620488 C 0.0 **** -0.24
1412 H 50.2917635256094 39.71559160976989 136.40665000687198 H 0.0 **** 0.06
1413 H 48.54664057065905 39.38638790968622 136.28544918616717 H 0.0 **** 0.06
1414 H 49.35445519996391 39.337222343965294 137.87214742579167 H 0.0 **** 0.06
1415 H 49.677660815641644 38.065581666742276 136.66936068346257 H 0.0 **** 0.06
1416 C 99.94459992118033 69.77302325025288 133.66556470908034 C 0.0 **** -0.24
1417 H 100.64980784899831 70.15314586639091 132.92725882281763 H 0.0 **** 0.06
1418 H 99.64328982262919 68.76160353648493 133.3932203665175 H 0.0 **** 0.06
1419 H 99.0661204682471 70.41860392983418 133.6947632832952 H 0.0 **** 0.06
1420 H 100.41805864369411 69.75959603470847 134.64694005987855 H 0.0 **** 0.06
1421 C 66.29575448669212 136.73400037510768 54.46451657002859 C 0.0 **** -0.24
1422 H 66.52563146777635 135.8336484417136 53.89452881267894 H 0.0 **** 0.06
1423 H 65.3802332452965 137.18371981538496 54.0791772636919 H 0.0 **** 0.06
1424 H 67.11751867066417 137.44298566839282 54.367989354683885 H 0.0 **** 0.06
1425 H 66.16128772175338 136.4743107406112 55.51425416359925 H 0.0 **** 0.06
1426 C 1.013892627901125 28.7195184649826 16.475871687657303 C 0.0 **** -0.24
1427 H 0.6884354374602992 29.626138745440812 15.96592331957305 H 0.0 **** 0.06
1428 H 1.4608253906029773 28.03541692468326 15.752681966628558 H 0.0 **** 0.06
1429 H 0.15688688437345633 28.240249409549648 16.947943016207688 H 0.0 **** 0.06
1430 H 1.7514254005332575 28.97537609777754 17.237377694728565 H 0.0 **** 0.06
1431 C 131.4709208421819 136.8267606334996 85.95845920523067 C 0.0 **** -0.24
1432 H 132.32529918799213 137.40288290440293 86.31446743135002 H 0.0 **** 0.06
1433 H 131.6980115033905 135.76157462661195 86.02634726895897 H 0.0 **** 0.06
1434 H 131.2633650430609 137.08898081263425 84.92107295824896 H 0.0 **** 0.06
1435 H 130.59955543787368 137.0526605786448 86.57322144807866 H 0.0 **** 0.06
1436 C 78.61304067263467 3.3364321395696948 105.90818416918057 C 0.0 **** -0.24
1437 H 77.84774037745245 3.987748621949379 106.33041913151817 H 0.0 **** 0.06
1438 H 78.36443321381637 3.110078527251403 104.87130691610588 H 0.0 **** 0.06
1439 H 78.65939193856624 2.411312536227456 106.48223409286874 H 0.0 **** 0.06
1440 H 79.57941861054496 3.838486154313955 105.94888412017039 H 0.0 **** 0.06
1441 C 29.094615068751892 36.03632392828544 78.56421657957026 C 0.0 **** -0.24
1442 H 29.596545699522125 35.93016222741659 77.60158504120437 H 0.0 **** 0.06
1443 H 29.83644366589394 36.22281436105378 79.34137342167188 H 0.0 **** 0.06
1444 H 28.55135656369356 35.119432912454414 78.79275568157401 H 0.0 **** 0.06
1445 H 28.39618137705088 36.871964639749535 78.51918278216895 H 0.0 **** 0.06
1446 C 26.0558061540965 34.94021748611635 71.97668245375684 C 0.0 **** -0.24
1447 H 25.345725986396758 34.174993674626364 72.28778961302923 H 0.0 **** 0.06
1448 H 25.51691457887739 35.76886635203988 71.5144118489775 H 0.0 **** 0.06
1449 H 26.755608744289503 34.51555141846791 71.25641294698532 H 0.0 **** 0.06
1450 H 26.6041499002541 35.30301624992825 72.84590350914625 H 0.0 **** 0.06
1451 C 127.862765004599 36.972590940575685 30.75923446480641 C 0.0 **** -0.24
1452 H 127.12092215004206 36.17744802523492 30.68871524861777 H 0.0 **** 0.06
1453 H 128.756405684709 36.68627219124744 30.20436061705408 H 0.0 **** 0.06
1454 H 128.12210122334437 37.13606121068335 31.805494128113764 H 0.0 **** 0.06
1455 H 127.45230529679675 37.89030745440391 30.339053253811073 H 0.0 **** 0.06
1456 C 89.2140660249334 65.03067975929318 47.35594576772114 C 0.0 **** -0.24
1457 H 89.75883708695326 65.93776059939476 47.09432601053153 H 0.0 **** 0.06
1458 H 88.92625126510248 64.50367860028398 46.446242241585836 H 0.0 **** 0.06
1459 H 88.31991536374082 65.29456250994312 47.92095246090568 H 0.0 **** 0.06
1460 H 89.85132742496413 64.38694511456372 47.96323378203438 H 0.0 **** 0.06
1461 C 80.01334974853928 12.61028620216328 114.46037201523728 C 0.0 **** -0.24
1462 H 80.74974513077761 13.131919371694664 113.84869173991075 H 0.0 **** 0.06
1463 H 79.56230292665913 11.806561002684674 113.878423882623 H 0.0 **** 0.06
1464 H 79.24005246928975 13.31158058795981 114.77449234477362 H 0.0 **** 0.06
1465 H 80.50319583328199 12.192266454940068 115.3399209763626 H 0.0 **** 0.06
1466 C 106.68047180916638 27.97662472837507 77.35336356660628 C 0.0 **** -0.24
1467 H 107.17759188855464 27.27967449602687 76.67858874033993 H 0.0 **** 0.06
1468 H 106.28079066350597 27.431617557870638 78.20894188547214 H 0.0 **** 0.06
1469 H 105.86602646413479 28.47379597639035 76.82522376165304 H 0.0 **** 0.06
1470 H 107.39731597210844 28.721225161426702 77.69871509477201 H 0.0 **** 0.06
1471 C 51.043384863507555 42.13640797754573 48.4230430568083 C 0.0 **** -0.24
1472 H 51.78173880466892 42.86892460607609 48.09660635869318 H 0.0 **** 0.06
1473 H 50.403561653573405 42.58012206117593 49.18525306262762 H 0.0 **** 0.06
1474 H 51.553057314268074 41.26611954063455 48.8371180688909 H 0.0 **** 0.06
1475 H 50.43568497572366 41.8300464973444 47.57083438954032 H 0.0 **** 0.06
1476 C 93.66864000080923 32.35797161976913 105.41374474165565 C 0.0 **** -0.24
1477 H 93.5126961313612 31.33742705478383 105.7626893485122 H 0.0 **** 0.06
1478 H 92.93055949551382 32.597037386872415 104.64772854335291 H 0.0 **** 0.06
1479 H 94.67134792009327 32.44949507487566 104.99428148470258 H 0.0 **** 0.06
1480 H 93.56098230904581 33.048810505923086 106.25068833187018 H 0.0 **** 0.06
1481 C 121.60925480391336 4.397045517850415 57.56890954061623 C 0.0 **** -0.24
1482 H 122.0874328251492 3.59029702607387 57.013082473476516 H 0.0 **** 0.06
1483 H 121.88240858345733 4.324103948135985 58.62106045602695 H 0.0 **** 0.06
1484 H 120.52653649714686 4.316926494209042 57.467405285829386 H 0.0 **** 0.06
1485 H 121.94094668637227 5.35679740205822 57.172710249354736 H 0.0 **** 0.06
1486 C 126.01920425971167 51.37700189271095 0.31142026844270276 C 0.0 **** -0.24
1487 H 125.08761748836937 51.878233660954606 0.5782628536745733 H 0.0 **** 0.06
1488 H 126.79794833902687 52.121578651708916 0.14839837178442394 H 0.0 **** 0.06
1489 H 125.87159611682873 50.79894843101698 -0.6006581713780292 H 0.0 **** 0.06
1490 H 126.31667978659277 50.710496260965414 1.1209377869162722 H 0.0 **** 0.06
1491 C 49.78396607074927 34.539745439962076 34.030510042362714 C 0.0 **** -0.24
1492 H 49.82756167643714 33.65765339636367 33.39247472667466 H 0.0 **** 0.06
1493 H 49.34869313532471 34.26965048877087 34.99294096350581 H 0.0 **** 0.06
1494 H 49.16941890116226 35.30324027772665 33.55361962837675 H 0.0 **** 0.06
1495 H 50.79095249174105 34.92725888775944 34.18317866867463 H 0.0 **** 0.06
1496 C 127.03777390374282 73.44876215451904 117.84575612803232 C 0.0 **** -0.24
1497 H 126.42440003890378 72.59022642230343 117.5710908947047 H 0.0 **** 0.06
1498 H 127.91203778872614 73.49316820516981 117.19485297768222 H 0.0 **** 0.06
1499 H 127.36022396755828 73.34808919497686 118.88154516101045 H 0.0 **** 0.06
1500 H 126.454268163342 74.36261293967846 117.73328452198487 H 0.0 **** 0.06
1501 C 43.461631325383735 116.40711283394819 13.588400293202369 C 0.0 **** -0.24
1502 H 42.487969149108295 116.886031039053 13.484076812386718 H 0.0 **** 0.06
1503 H 43.33555416296349 115.32393203108197 13.588495297531608 H 0.0 **** 0.06
1504 H 43.921710011314076 116.72019172582125 14.525833645071089 H 0.0 **** 0.06
1505 H 44.1007643850902 116.69861727076116 12.75392306962425 H 0.0 **** 0.06
1506 C 79.94091474936563 90.95664445709183 89.36994687208323 C 0.0 **** -0.24
1507 H 79.45891124739926 91.93397675272523 89.36492259383101 H 0.0 **** 0.06
1508 H 79.22045350378325 90.19463283549457 89.07390986461223 H 0.0 **** 0.06
1509 H 80.30962677194539 90.73823717835413 90.37255636869861 H 0.0 **** 0.06
1510 H 80.77583571924666 90.96092151927253 88.66886573062453 H 0.0 **** 0.06
1511 C 123.88395976637781 58.784562490940246 118.6634725654221 C 0.0 **** -0.24
1512 H 124.8129295552248 58.23879523810358 118.49923710669975 H 0.0 **** 0.06
1513 H 123.25236023936833 58.2260752654671 119.35487921410531 H 0.0 **** 0.06
1514 H 123.36343956106037 58.90980303188 117.71392499302806 H 0.0 **** 0.06
1515 H 124.1084646441505 59.76413765502973 119.08677053163933 H 0.0 **** 0.06
1516 C 89.67903702672211 38.41964829553075 106.95141387768624 C 0.0 **** -0.24
1517 H 89.93506780586134 38.82684114781455 107.92889954220468 H 0.0 **** 0.06
1518 H 89.3948995575856 39.232675914446645 106.2825176967716 H 0.0 **** 0.06
1519 H 88.84477644462567 37.725468812216434 107.05443429252335 H 0.0 **** 0.06
1520 H 90.5404240272918 37.89380343430386 106.53977851516302 H 0.0 **** 0.06
1521 C 38.04388158797525 80.2035030440752 21.644699770394027 C 0.0 **** -0.24
1522 H 38.46025349486882 81.20813784226058 21.70869474432328 H 0.0 **** 0.06
1523 H 37.731243596528856 79.87614514856958 22.63680077628186 H 0.0 **** 0.06
1524 H 38.799912762885555 79.52047421513907 21.258341762892826 H 0.0 **** 0.06
1525 H 37.182784488188815 80.20896765081392 20.975340336145905 H 0.0 **** 0.06
1526 C 92.61323233748914 11.655916275147145 51.57565968986654 C 0.0 **** -0.24
1527 H 91.82671208305067 11.08159342914906 52.06519438719988 H 0.0 **** 0.06
1528 H 93.05504148327634 11.059219896979076 50.776333555939914 H 0.0 **** 0.06
1529 H 93.3823249833788 11.914059198414957 52.304261664025944 H 0.0 **** 0.06
1530 H 92.18883643806245 12.568300364636706 51.15552340181506 H 0.0 **** 0.06
1531 C 123.58494127033657 135.96957730471394 47.84666104289818 C 0.0 **** -0.24
1532 H 123.95409540142413 136.99339266153058 47.80413669596953 H 0.0 **** 0.06
1533 H 122.55799058806093 135.9387465877669 47.48308737879127 H 0.0 **** 0.06
1534 H 123.61669808190078 135.61326206149042 48.875660534769395 H 0.0 **** 0.06
1535 H 124.21084937089506 135.3318414609724 47.221798543581954 H 0.0 **** 0.06
1536 C 119.7007502505578 66.33974589693581 94.8476327667047 C 0.0 **** -0.24
1537 H 119.8076669744416 65.41880421055404 95.42085112668302 H 0.0 **** 0.06
1538 H 120.66951046421384 66.62794225561349 94.44014590090269 H 0.0 **** 0.06
1539 H 119.3293689253844 67.1314664692645 95.498740696013 H 0.0 **** 0.06
1540 H 118.99586151550716 66.17892356445427 94.03190541500844 H 0.0 **** 0.06
1541 C 72.49928727793376 84.6793263971989 121.63831184583864 C 0.0 **** -0.24
1542 H 71.66020508647242 85.13680818257816 121.11387923182428 H 0.0 **** 0.06
1543 H 72.17799749910368 83.73786879841366 122.08562225435031 H 0.0 **** 0.06
1544 H 72.84895546800551 85.35175076018288 122.42129502966412 H 0.0 **** 0.06
1545 H 73.30829388960058 84.49024891413615 120.93330189451939 H 0.0 **** 0.06
1546 C 28.559077927778503 47.94643749629694 46.50631060976994 C 0.0 **** -0.24
1547 H 28.604467983317136 48.65609082139778 47.33175407418631 H 0.0 **** 0.06
1548 H 28.946422831217205 48.41516126004706 45.60153106034909 H 0.0 **** 0.06
1549 H 27.524445554959897 47.643879876163226 46.34362435160918 H 0.0 **** 0.06
1550 H 29.15985586667813 47.069241849292325 46.746971651752716 H 0.0 **** 0.06
1551 C 69.17251252485465 76.37475053560317 78.99107049478069 C 0.0 **** -0.24
1552 H 69.55761200953756 77.28007739122975 79.46019811967165 H 0.0 **** 0.06
1553 H 68.28813671611692 76.618563805249 78.40226187760148 H 0.0 **** 0.06
1554 H 68.90742943933074 75.65155613709389 79.76327056580803 H 0.0 **** 0.06
1555 H 69.93764123114329 75.94859013500137 78.34177051646377 H 0.0 **** 0.06
1556 C 31.42467334375769 124.76587276397777 2.2012948606402176 C 0.0 **** -0.24
1557 H 30.36576984691422 124.58890465778279 2.3869119038895406 H 0.0 **** 0.06
1558 H 31.965090272260568 124.75773680391272 3.148693131964052 H 0.0 **** 0.06
1559 H 31.551325953676383 125.73465168216872 1.7194240021040628 H 0.0 **** 0.06
1560 H 31.81612005430469 123.98282034372885 1.55226295037005 H 0.0 **** 0.06
1561 C 93.74311736345278 8.739562308865345 133.9856942671857 C 0.0 **** -0.24
1562 H 93.89230209708454 8.199212932571129 134.92120300003742 H 0.0 **** 0.06
1563 H 94.5087542728139 8.442455366792103 133.26909141711556 H 0.0 **** 0.06
1564 H 93.81349801600979 9.811335911257572 134.17096154695236 H 0.0 **** 0.06
1565 H 92.75750896275368 8.504324827398705 133.58375462055508 H 0.0 **** 0.06
1566 C 80.70924200135876 87.04820949564242 52.23654271420011 C 0.0 **** -0.24
1567 H 79.63441647992039 87.2239603696614 52.2794004403593 H 0.0 **** 0.06
1568 H 81.0165097235612 86.93169792001638 51.19686742880762 H 0.0 **** 0.06
1569 H 80.95092073767793 86.14094161402653 52.790218107492805 H 0.0 **** 0.06
1570 H 81.23332075927424 87.89430643902449 52.67867095696886 H 0.0 **** 0.06
1571 C 128.31959516929467 122.93449824160626 111.69684660714242 C 0.0 **** -0.24
1572 H 128.4722829309665 123.82909966959983 112.29890947906219 H 0.0 **** 0.06
1573 H 129.21268883737972 122.31026316269555 111.74056592625894 H 0.0 **** 0.06
1574 H 128.12607199922758 123.21987032807431 110.66334984088999 H 0.0 **** 0.06
1575 H 127.46717889461618 122.37585084463126 112.0852776960125 H 0.0 **** 0.06
1576 C 100.07166250172378 125.30499504523686 69.94612379565046 C 0.0 **** -0.24
1577 H 100.14641504405301 126.35805199640905 70.21503664013301 H 0.0 **** 0.06
1578 H 99.67550317568023 124.74114453395956 70.79094121591567 H 0.0 **** 0.06
1579 H 101.06006015105838 124.92466949252369 69.68651127075856 H 0.0 **** 0.06
1580 H 99.40478022302375 125.19581443313936 69.0906282072732 H 0.0 **** 0.06
1581 C 130.3647052185296 122.59947812845688 37.743378248855265 C 0.0 **** -0.24
1582 H 130.39265664422066 122.65766041299807 38.8311041172974 H 0.0 **** 0.06
1583 H 131.18013184035607 121.96777224550603 37.39159970198844 H 0.0 **** 0.06
1584 H 130.47275242744163 123.60040232722451 37.323523881791175 H 0.0 **** 0.06
1585 H 129.41291054406736 122.17449660965809 37.42717642373749 H 0.0 **** 0.06
1586 C 14.40456731067681 105.06022923921766 32.50004463384682 C 0.0 **** -0.24
1587 H 15.36214578404281 104.57663602607488 32.30286652312212 H 0.0 **** 0.06
1588 H 13.765344578753059 104.96968141581509 31.621725523663308 H 0.0 **** 0.06
1589 H 14.569203511156758 106.11331002621974 32.72549925081113 H 0.0 **** 0.06
1590 H 13.923407546530086 104.57712755931874 33.350655076847474 H 0.0 **** 0.06
1591 C 50.584073028519214 93.1348044626476 54.216220253666165 C 0.0 **** -0.24
1592 H 49.5413822494221 92.83043487505586 54.30564140927012 H 0.0 **** 0.06
1593 H 50.80973319875392 93.88416505813734 54.9748217563141 H 0.0 **** 0.06
1594 H 50.755727964822086 93.55621778604865 53.22607510019361 H 0.0 **** 0.06
1595 H 51.22919822590649 92.2670105065273 54.35826339059986 H 0.0 **** 0.06
1596 C 49.36376348914757 40.61819790748983 108.41910341727922 C 0.0 **** -0.24
1597 H 49.78125911209531 39.8566376092774 107.76090713128949 H 0.0 **** 0.06
1598 H 48.30101222402121 40.42627513486735 108.56989301184048 H 0.0 **** 0.06
1599 H 49.49474118203807 41.60115767089384 107.96477964851623 H 0.0 **** 0.06
1600 H 49.87865151647526 40.59058526761291 109.37975993888807 H 0.0 **** 0.06
1601 C 137.00735371508034 56.13623303037954 113.06363500943655 C 0.0 **** -0.24
1602 H 136.7650142755828 55.121005246766046 112.74898564901633 H 0.0 **** 0.06
1603 H 136.89690829533023 56.21726008331751 114.14477721377276 H 0.0 **** 0.06
1604 H 136.3327947375785 56.83854848437737 112.57472068743525 H 0.0 **** 0.06
1605 H 138.035942147168 56.36692782238876 112.7843146474666 H 0.0 **** 0.06
1606 C 88.3206926410806 34.922282856403086 31.01866788767728 C 0.0 **** -0.24
1607 H 87.97132884959328 35.538386372468864 30.190680919928297 H 0.0 **** 0.06
1608 H 87.47605565506727 34.38538725935328 31.452676679070514 H 0.0 **** 0.06
1609 H 88.77597113259148 35.55812846051549 31.777750169114306 H 0.0 **** 0.06
1610 H 89.05742688382517 34.207017007067776 30.65361657485537 H 0.0 **** 0.06
1611 C 52.323934179405896 32.46646068413653 87.55385512628456 C 0.0 **** -0.24
1612 H 51.59722420064753 32.820532027797846 86.82342367754077 H 0.0 **** 0.06
1613 H 51.803544471340444 31.9597139741227 88.36671882748135 H 0.0 **** 0.06
1614 H 52.88150734376839 33.31544420977569 87.95103551624351 H 0.0 **** 0.06
1615 H 53.013358474257686 31.77174867381055 87.0735776552848 H 0.0 **** 0.06
1616 C 129.02033802381453 18.403747714241746 23.33116026866344 C 0.0 **** -0.24
1617 H 128.31514464028544 19.227717780230506 23.443462174392295 H 0.0 **** 0.06
1618 H 130.038741706925 18.788646631108406 23.383608539986113 H 0.0 **** 0.06
1619 H 128.86349205380304 17.920135509781616 22.36699034621293 H 0.0 **** 0.06
1620 H 128.8626175193446 17.679903774261874 24.13098604686718 H 0.0 **** 0.06
1621 C 104.30688753256676 23.892726145993095 70.19424218296393 C 0.0 **** -0.24
1622 H 103.66171316521537 24.057487525152936 71.05692391046071 H 0.0 **** 0.06
1623 H 105.24156151912045 23.43683950838991 70.52029732936654 H 0.0 **** 0.06
1624 H 104.51704443356299 24.847287308870193 69.71085500121177 H 0.0 **** 0.06
1625 H 103.80579546745453 23.230441599305948 69.48810905509771 H 0.0 **** 0.06
1626 C 59.15171713539151 8.150430164197019 27.24535706038469 C 0.0 **** -0.24
1627 H 58.53436841907525 9.028197884445866 27.43390522207335 H 0.0 **** 0.06
1628 H 58.94591171739546 7.770366473056743 26.24511721688691 H 0.0 **** 0.06
1629 H 58.92091049036513 7.380215309475965 27.981578801176568 H 0.0 **** 0.06
1630 H 60.204291228270606 8.423325143921247 27.321791192939514 H 0.0 **** 0.06
1631 C 76.02499830354674 80.83089109972343 19.215725520095454 C 0.0 **** -0.24
1632 H 76.40957172912817 80.31561432296905 20.096641660593768 H 0.0 **** 0.06
1633 H 75.19895209006472 80.25971484227495 18.793040816341374 H 0.0 **** 0.06
1634 H 76.81919194241124 80.92693355204307 18.475827999233744 H 0.0 **** 0.06
1635 H 75.67298057786968 81.82303780961502 19.501327637108545 H 0.0 **** 0.06
1636 C 52.110250115331496 1.7770591700246712 134.13748737146406 C 0.0 **** -0.24
1637 H 51.35978264546975 1.773698389572104 134.92683156703563 H 0.0 **** 0.06
1638 H 51.61611765870546 1.812776323027208 133.16645262766676 H 0.0 **** 0.06
1639 H 52.71393021807165 0.8725778634574226 134.2065157960916 H 0.0 **** 0.06
1640 H 52.75175480946865 2.6520107159524002 134.25096718011923 H 0.0 **** 0.06
1641 C 45.2409339442798 44.16297432693634 137.0339944344733 C 0.0 **** -0.24
1642 H 45.02723787645144 45.11792737439774 136.5524720645459 H 0.0 **** 0.06
1643 H 45.49849052794059 44.333287317394635 138.07981382550236 H 0.0 **** 0.06
1644 H 46.076273324898324 43.67985867041504 136.52743404393635 H 0.0 **** 0.06
1645 H 44.36066858853533 43.522184390603314 136.9761389562828 H 0.0 **** 0.06
1646 C 128.6561922010963 89.36545663859602 51.40668403651419 C 0.0 **** -0.24
1647 H 129.73811369180777 89.2406256301898 51.401776985530574 H 0.0 **** 0.06
1648 H 128.40034192503913 90.29789453772418 51.910706160123624 H 0.0 **** 0.06
1649 H 128.19553472628394 88.52927255312532 51.933448656109434 H 0.0 **** 0.06
1650 H 128.28972741208526 89.39429311897109 50.3798943117106 H 0.0 **** 0.06
1651 C 90.67228474454811 45.585910435823735 82.98436778759731 C 0.0 **** -0.24
1652 H 89.7382579112616 45.43505214811944 82.4419696203185 H 0.0 **** 0.06
1653 H 91.5104522295735 45.28717611494217 82.35444306496129 H 0.0 **** 0.06
1654 H 90.66658014505018 44.98114099702951 83.89211804150148 H 0.0 **** 0.06
1655 H 90.77205726172775 46.63791105179209 83.24940392688131 H 0.0 **** 0.06
1656 C 59.58930495878258 49.91575397104614 114.57613505681047 C 0.0 **** -0.24
1657 H 60.13825779212894 49.98681095064785 113.63622929881552 H 0.0 **** 0.06
1658 H 59.152784670066694 48.920870593274714 114.66683337900423 H 0.0 **** 0.06
1659 H 58.796449610001446 50.663073171878665 114.59101571167798 H 0.0 **** 0.06
1660 H 60.26996969171705 50.09121334614372 115.40850128405964 H 0.0 **** 0.06
1661 C 31.77033988998688 26.04351929856523 119.76240479387747 C 0.0 **** -0.24
1662 H 31.74114703932323 25.942064740369347 118.67739381445983 H 0.0 **** 0.06
1663 H 31.05682497473284 26.805240630587605 120.07526594249066 H 0.0 **** 0.06
1664 H 32.77367315615663 26.335244244549983 120.07234021073569 H 0.0 **** 0.06
1665 H 31.511285050142064 25.08994308538206 120.22261351000067 H 0.0 **** 0.06
1666 C 37.23741773773352 119.86683713942341 126.80133683806002 C 0.0 **** -0.24
1667 H 36.706225619210244 120.63596860211486 127.3631124557212 H 0.0 **** 0.06
1668 H 38.288871573584856 119.86818290335101 127.08939950829927 H 0.0 **** 0.06
1669 H 37.151726027303596 120.07261001976741 125.73390086302649 H 0.0 **** 0.06
1670 H 36.80145180280658 118.89223433388514 127.01951591549849 H 0.0 **** 0.06
1671 C 82.64410652712247 37.63327478417176 93.11251795318478 C 0.0 **** -0.24
1672 H 83.62875071189286 37.5622196350011 92.64921339999668 H 0.0 **** 0.06
1673 H 82.75664809053087 37.867496205818554 94.17130773649892 H 0.0 **** 0.06
1674 H 82.12197592027323 36.683056437799095 93.00380847464521 H 0.0 **** 0.06
1675 H 82.0700568190391 38.42152810932018 92.62500312213237 H 0.0 **** 0.06
1676 C 90.59948500036128 4.26853832010346 48.237294427747216 C 0.0 **** -0.24
1677 H 90.33230710670979 3.2907330991961317 48.63960903412459 H 0.0 **** 0.06
1678 H 89.86817992764868 4.563600003343026 47.48420705062776 H 0.0 **** 0.06
1679 H 91.5884552017327 4.215941834361587 47.78249491989406 H 0.0 **** 0.06
1680 H 90.608709788352 5.002247652053342 49.0423587165302 H 0.0 **** 0.06
1681 C 128.94909502411986 121.46536124297384 17.935043614266846 C 0.0 **** -0.24
1682 H 127.92114907000925 121.32480911071909 18.270132115486888 H 0.0 **** 0.06
1683 H 129.02308798944082 121.21344954739467 16.876564206497676 H 0.0 **** 0.06
1684 H 129.61088766312182 120.81805677430636 18.510230954395297 H 0.0 **** 0.06
1685 H 129.23891937050257 122.50579441540702 18.08179756044089 H 0.0 **** 0.06
1686 C 113.42034339895079 35.63166241393006 111.42294341775735 C 0.0 **** -0.24
1687 H 114.36195978233269 35.1779963057931 111.11233635227629 H 0.0 **** 0.06
1688 H 113.56703871387668 36.700267009338546 111.58117989371112 H 0.0 **** 0.06
1689 H 113.08395379241884 35.16893755782942 112.35130264204207 H 0.0 **** 0.06
1690 H 112.67058483640201 35.4784560450276 110.64753261615778 H 0.0 **** 0.06
1691 C 39.31556294292501 103.08878076033545 69.45920900223615 C 0.0 **** -0.24
1692 H 39.26864189569539 104.10624268676554 69.07171360694761 H 0.0 **** 0.06
1693 H 38.31150402167176 102.75230143556331 69.716365335523 H 0.0 **** 0.06
1694 H 39.946106024118066 103.06689076893076 70.34835091310481 H 0.0 **** 0.06
1695 H 39.73707664854252 102.42965619915904 68.69948989242329 H 0.0 **** 0.06
1696 C 51.84352139579687 48.06962731309224 131.37669665655432 C 0.0 **** -0.24
1697 H 52.22854645978845 47.188242993510855 131.89059985078535 H 0.0 **** 0.06
1698 H 50.94581511094552 48.42208703608874 131.8840442730978 H 0.0 **** 0.06
1699 H 51.60247094455082 47.81267481318292 130.34516422438946 H 0.0 **** 0.06
1700 H 52.59928168947408 48.85566731643165 131.38834152185547 H 0.0 **** 0.06
1701 C 10.762240966557215 130.55550026185216 78.96203286209948 C 0.0 **** -0.24
1702 H 11.21009246834521 131.42865354418302 79.43490427058376 H 0.0 **** 0.06
1703 H 9.701221810462187 130.73898633760223 78.79013663529292 H 0.0 **** 0.06
1704 H 10.881595667365644 129.68854714834566 79.61257637379435 H 0.0 **** 0.06
1705 H 11.2571832166266 130.3648546617236 78.0096172488779 H 0.0 **** 0.06
1706 C 118.48149362543407 51.94061319088044 97.46484150762343 C 0.0 **** -0.24
1707 H 119.03223541724796 52.68679871801578 96.89110397664274 H 0.0 **** 0.06
1708 H 118.51957842997837 50.98305421156647 96.94607047681707 H 0.0 **** 0.06
1709 H 117.44410302372583 52.256269781356025 97.56973506718649 H 0.0 **** 0.06
1710 H 118.93167344257782 51.83777102284208 98.45189705592249 H 0.0 **** 0.06
1711 C 124.29297931265606 37.40260453184565 2.694785506648884 C 0.0 **** -0.24
1712 H 123.9776949121674 38.38381679434591 3.0507775600709977 H 0.0 **** 0.06
1713 H 124.4532681616308 37.44229374002331 1.6169741351417315 H 0.0 **** 0.06
1714 H 123.51895907756742 36.668295902688335 2.920315160156747 H 0.0 **** 0.06
1715 H 125.22086454245381 37.117549797497645 3.1899105685602365 H 0.0 **** 0.06
1716 C 79.6825844441139 96.60495801846557 115.4003747974781 C 0.0 **** -0.24
1717 H 79.01561066340543 95.75459332342531 115.54289122316095 H 0.0 **** 0.06
1718 H 80.6032435153115 96.26913165664355 114.92176467002878 H 0.0 **** 0.06
1719 H 79.91669809353948 97.04817637043676 116.36816214107682 H 0.0 **** 0.06
1720 H 79.19478550419927 97.34793072335681 114.76868115564605 H 0.0 **** 0.06
1721 C 67.02962394097602 66.44807166253551 2.8417121844755684 C 0.0 **** -0.24
1722 H 66.19762657198288 65.90579758172993 3.2927014680180378 H 0.0 **** 0.06
1723 H 67.14417610555142 67.41331039873415 3.3366789755436344 H 0.0 **** 0.06
1724 H 66.82948102471096 66.60420097733913 1.7818114820376536 H 0.0 **** 0.06
1725 H 67.94514824618557 65.86910893101378 2.9578302563949137 H 0.0 **** 0.06
1726 C 0.5791900879002014 124.23386318328477 61.621877899700166 C 0.0 **** -0.24
1727 H -0.4973519587323949 124.40661542673962 61.63432719404361 H 0.0 **** 0.06
1728 H 0.7732758278054206 123.16551762255051 61.51988470389858 H 0.0 **** 0.06
1729 H 1.0155229200223914 124.59603827072488 62.55243251876922 H 0.0 **** 0.06
1730 H 1.0221160811582486 124.7656498137772 60.78052865718254 H 0.0 **** 0.06
1731 C 4.185082794294459 66.4066152417924 53.6058369373319 C 0.0 **** -0.24
1732 H 4.712588954563813 66.65651950072743 52.68552712278637 H 0.0 **** 0.06
1733 H 4.409453005732672 65.37587819974968 53.88359817310547 H 0.0 **** 0.06
1734 H 3.1117169771909516 66.51552830872097 53.449539648807615 H 0.0 **** 0.06
1735 H 4.507223616563181 67.07635614343027 54.40206956305434 H 0.0 **** 0.06
1736 C 114.14851122861296 32.879656178776656 42.87127593980017 C 0.0 **** -0.24
1737 H 115.05120618951358 32.964404283668856 43.475636420450655 H 0.0 **** 0.06
1738 H 114.40872916491438 32.96343134467455 41.815765900569886 H 0.0 **** 0.06
1739 H 113.45710513148981 33.678990442490935 43.13903409926826 H 0.0 **** 0.06
1740 H 113.67714823663093 31.914028460929288 43.05475376020513 H 0.0 **** 0.06
1741 C 49.962397363200495 53.82803453299857 124.86138646112016 C 0.0 **** -0.24
1742 H 50.04738300469924 53.39443559533254 125.85717027511967 H 0.0 **** 0.06
1743 H 49.2238311166721 53.270763127663486 124.2840160412704 H 0.0 **** 0.06
1744 H 50.92885388651203 53.77887278954228 124.36040248664736 H 0.0 **** 0.06
1745 H 49.64901742089927 54.86882892116466 124.94436312301102 H 0.0 **** 0.06
1746 C 59.15698046676732 8.797094162221299 34.03686306915949 C 0.0 **** -0.24
1747 H 59.50758935254407 8.013395220187874 33.36651512667883 H 0.0 **** 0.06
1748 H 59.99677295050503 9.429043644530168 34.32755972358446 H 0.0 **** 0.06
1749 H 58.717160668767065 8.34444661806208 34.925825290105905 H 0.0 **** 0.06
1750 H 58.406095708104715 9.402733020726032 33.528157088619665 H 0.0 **** 0.06
1751 C 91.71041244051025 20.55623225189089 75.92031980000729 C 0.0 **** -0.24
1752 H 92.27394050079211 20.91303755901123 76.78215687182885 H 0.0 **** 0.06
1753 H 90.76672416480297 20.125583576525656 76.25622343588361 H 0.0 **** 0.06
1754 H 92.29070020883856 19.795448314826587 75.39689833171286 H 0.0 **** 0.06
1755 H 91.51169618872736 21.389447465018492 75.24588051809422 H 0.0 **** 0.06
1756 C 88.38379638753901 28.90327925787119 129.83658018167037 C 0.0 **** -0.24
1757 H 88.7416480678659 27.89337249831084 130.0380040979748 H 0.0 **** 0.06
1758 H 88.39717826141583 29.085705064685982 128.76167793121934 H 0.0 **** 0.06
1759 H 89.03069131535744 29.624492704346153 130.336270274179 H 0.0 **** 0.06
1760 H 87.36530574142176 29.00758038646913 130.21041722291994 H 0.0 **** 0.06
1761 C 121.47047358212144 113.67952700441774 18.68096900503747 C 0.0 **** -0.24
1762 H 121.65359561654705 114.25897339670618 17.776937927296444 H 0.0 **** 0.06
1763 H 121.56684742590865 114.32552778683254 19.553463773845465 H 0.0 **** 0.06
1764 H 122.19643242935861 112.86953698434542 18.746329141963656 H 0.0 **** 0.06
1765 H 120.46339979694454 113.26252754702386 18.647131778515245 H 0.0 **** 0.06
1766 C 121.57962900199716 6.335695544937948 19.14379806987361 C 0.0 **** -0.24
1767 H 120.49348101764754 6.4042911014654464 19.204988514894524 H 0.0 **** 0.06
1768 H 121.85677500163732 5.44055298292551 18.586619489348806 H 0.0 **** 0.06
1769 H 121.99641239765333 6.281965550220434 20.149768632259452 H 0.0 **** 0.06
1770 H 121.97120475554615 7.216491202507314 18.63496361936035 H 0.0 **** 0.06
1771 C 65.40235059869791 97.42858555976727 23.64623379754233 C 0.0 **** -0.24
1772 H 65.45498728070953 98.19857618734869 24.416937337339732 H 0.0 **** 0.06
1773 H 65.5259928883314 97.88861235289738 22.665474383595885 H 0.0 **** 0.06
1774 H 64.4340590690642 96.93059526331035 23.695561640799404 H 0.0 **** 0.06
1775 H 66.19484882149429 96.69850986477701 23.808360517677933 H 0.0 **** 0.06
1776 C 2.578261268927804 97.4195927975087 3.3017382841758263 C 0.0 **** -0.24
1777 H 2.431970178026944 97.08306567249633 2.2755616650746333 H 0.0 **** 0.06
1778 H 3.525186284314259 97.95504675421614 3.377171579762205 H 0.0 **** 0.06
1779 H 2.59406407203727 96.55747335303619 3.9679404762285344 H 0.0 **** 0.06
1780 H 1.7618632038590079 98.08417173814098 3.586002480662046 H 0.0 **** 0.06
1781 C 130.81475773005656 85.82323962763792 75.39249632952745 C 0.0 **** -0.24
1782 H 130.60989829207568 84.8023476990253 75.7148646637648 H 0.0 **** 0.06
1783 H 131.89098300674982 86.00265852648947 75.41541373816338 H 0.0 **** 0.06
1784 H 130.31603161631205 86.52271795803074 76.06302027939412 H 0.0 **** 0.06
1785 H 130.4441313040984 85.96472352891206 74.37751485423362 H 0.0 **** 0.06
1786 C 27.955170999315243 70.47880404567809 87.13242655279095 C 0.0 **** -0.24
1787 H 27.73400881402884 71.50594637965911 87.42580355176193 H 0.0 **** 0.06
1788 H 27.55558211215373 69.79396367937365 87.87983769710468 H 0.0 **** 0.06
1789 H 29.03479822628057 70.34773654821842 87.05907516462707 H 0.0 **** 0.06
1790 H 27.496790280141425 70.27095059006629 86.16555886727812 H 0.0 **** 0.06
1791 C 95.99982566806362 114.54606136473231 35.22047725725059 C 0.0 **** -0.24
1792 H 95.902660067482 115.58217555689066 35.5468977753072 H 0.0 **** 0.06
1793 H 95.563996065663 113.88703180768422 35.971753297975795 H 0.0 **** 0.06
1794 H 97.05460968505827 114.30476907726558 35.091532541838546 H 0.0 **** 0.06
1795 H 95.47768484734395 114.41377087833717 34.27299573192195 H 0.0 **** 0.06
1796 C 76.01734344411202 48.655904634581475 63.68346803471937 C 0.0 **** -0.24
1797 H 75.07954757811112 48.47400903111395 64.20786667981793 H 0.0 **** 0.06
1798 H 76.44275053572963 49.60244378059241 64.017326576134 H 0.0 **** 0.06
1799 H 75.82974903414495 48.69979492284466 62.609883796811516 H 0.0 **** 0.06
1800 H 76.71629623003862 47.84819323263446 63.89729106641829 H 0.0 **** 0.06
1801 C 80.24285027708522 135.5087247426291 123.49993198589755 C 0.0 **** -0.24
1802 H 79.39717855145794 134.9343616390164 123.122505977522 H 0.0 **** 0.06
1803 H 81.02312153066144 135.5479591559715 122.73876868605464 H 0.0 **** 0.06
1804 H 80.6350447253184 135.03025198101852 124.39696786125171 H 0.0 **** 0.06
1805 H 79.91730655711814 136.52089054886505 123.74031238308038 H 0.0 **** 0.06
1806 C 74.84808721944172 71.76067486008293 115.46171930397946 C 0.0 **** -0.24
1807 H 75.06669095324162 70.72223969180692 115.70939821277184 H 0.0 **** 0.06
1808 H 73.91862937769548 72.06123579939373 115.94738317592811 H 0.0 **** 0.06
1809 H 74.74289488322975 71.86308450176898 114.38157815266922 H 0.0 **** 0.06
1810 H 75.66210128680851 72.39543103949637 115.80968723897652 H 0.0 **** 0.06
1811 C 102.09647179600535 119.15606232367563 5.545186917639143 C 0.0 **** -0.24
1812 H 103.10456631120076 118.74982739734861 5.453952250132261 H 0.0 **** 0.06
1813 H 101.51142255063958 118.8729074210919 4.669497589979471 H 0.0 **** 0.06
1814 H 102.14756762168464 120.24292968177629 5.613059170275903 H 0.0 **** 0.06
1815 H 101.62453170771008 118.75715214924733 6.442788311250865 H 0.0 **** 0.06
1816 C 95.98399928236643 129.26881508223488 122.87033641707814 C 0.0 **** -0.24
1817 H 96.85129017856968 128.7304689533991 123.250901720635 H 0.0 **** 0.06
1818 H 95.08498219611101 128.67632674185285 123.0423100824543 H 0.0 **** 0.06
1819 H 96.1049824714571 129.44462263401365 121.8015535474198 H 0.0 **** 0.06
1820 H 95.89400192525761 130.22412865027096 123.38775069981598 H 0.0 **** 0.06
1821 C 62.93510769521261 63.10334919270089 77.09503197959224 C 0.0 **** -0.24
1822 H 62.72354772553409 63.63077478610934 76.164430709463 H 0.0 **** 0.06
1823 H 63.665272267371876 63.66821497195933 77.67486939282774 H 0.0 **** 0.06
1824 H 63.33631489765189 62.11518180735413 76.8678446003341 H 0.0 **** 0.06
1825 H 62.0157633862291 62.99901826364449 77.6698624648517 H 0.0 **** 0.06
1826 C 85.72650872688081 100.31845624514435 93.17789529554636 C 0.0 **** -0.24
1827 H 85.23276916024423 99.83828577897475 94.02376272361028 H 0.0 **** 0.06
1828 H 85.06034533847465 100.30881753928185 92.31573089414405 H 0.0 **** 0.06
1829 H 86.64148363674546 99.7768374006233 92.93763499815935 H 0.0 **** 0.06
1830 H 85.97179779798265 101.3485461788508 93.43792817318678 H 0.0 **** 0.06
1831 C 64.07658920532525 121.27728427258026 90.45242437727842 C 0.0 **** -0.24
1832 H 63.82883023707265 120.78124276094911 89.51517720018998 H 0.0 **** 0.06
1833 H 63.82580849191031 122.33662831241962 90.37979238529883 H 0.0 **** 0.06
1834 H 65.14269647478449 121.16966123520919 90.64997333712196 H 0.0 **** 0.06
1835 H 63.509391996063826 120.82457217400218 91.26499504448992 H 0.0 **** 0.06
1836 C 117.30098830519091 14.820442842414778 119.45105831412879 C 0.0 **** -0.24
1837 H 116.97387907402035 15.738135829715034 119.93889450530465 H 0.0 **** 0.06
1838 H 117.6716234340152 15.051992619511005 118.45206561938012 H 0.0 **** 0.06
1839 H 116.46055140898363 14.129337317360772 119.37628461710078 H 0.0 **** 0.06
1840 H 118.09737682012351 14.361623779279569 120.03750054356456 H 0.0 **** 0.06
1841 C 51.40853430189014 71.62420888451925 10.150122772377074 C 0.0 **** -0.24
1842 H 51.65852669979938 71.37140947602725 11.18061407840679 H 0.0 **** 0.06
1843 H 52.323197148119505 71.70765038279404 9.563769276174924 H 0.0 **** 0.06
1844 H 50.87390671303393 72.5745422055398 10.128121767395612 H 0.0 **** 0.06
1845 H 50.775328148935046 70.84235318847857 9.728336339131516 H 0.0 **** 0.06
1846 C 54.80049292268754 107.16687973018134 130.2223595768255 C 0.0 **** -0.24
1847 H 55.399034687072685 107.9854185172139 130.62332730045213 H 0.0 **** 0.06
1848 H 55.4542501545813 106.45168759723755 129.72336985079747 H 0.0 **** 0.06
1849 H 54.0791017260172 107.56161127633784 129.50663698597987 H 0.0 **** 0.06
1850 H 54.271478228775976 106.67170080412862 131.0362086503842 H 0.0 **** 0.06
1851 C 30.01294716645816 33.13152104298783 11.879143524923222 C 0.0 **** -0.24
1852 H 29.86926389540804 34.20456400230643 12.00999472759463 H 0.0 **** 0.06
1853 H 29.043008043415057 32.645186479486455 11.783787493660242 H 0.0 **** 0.06
1854 H 30.53994792954586 32.72801246607216 12.743513854449304 H 0.0 **** 0.06
1855 H 30.600811278087463 32.951320597979816 10.978599416622103 H 0.0 **** 0.06
1856 C 74.66798804562362 76.5086345710061 119.68799960861293 C 0.0 **** -0.24
1857 H 73.70632839463268 76.18257687963992 119.29211686511849 H 0.0 **** 0.06
1858 H 75.29481824601034 75.63838841997836 119.88249278830227 H 0.0 **** 0.06
1859 H 74.51150958673298 77.05891666468057 120.61643281886438 H 0.0 **** 0.06
1860 H 75.15900912396452 77.15600946710498 118.96125060220504 H 0.0 **** 0.06
1861 C 22.15361547846875 47.83846731830023 14.908750109439396 C 0.0 **** -0.24
1862 H 21.427262767512985 47.09185290706371 14.586683731200964 H 0.0 **** 0.06
1863 H 21.916869679453654 48.797214143935804 14.448221090722903 H 0.0 **** 0.06
1864 H 23.152851731298355 47.52638790021474 14.606754477439608 H 0.0 **** 0.06
1865 H 22.11507820783318 47.936493716727114 15.994085453750785 H 0.0 **** 0.06
1866 C 37.194303263646724 71.15273124518362 54.22463523099151 C 0.0 **** -0.24
1867 H 36.82841710580457 72.15224930479897 53.98826886036386 H 0.0 **** 0.06
1868 H 38.184287671410694 71.22498249255489 54.67382855614332 H 0.0 **** 0.06
1869 H 37.25046846001701 70.56217288873852 53.3108270962025 H 0.0 **** 0.06
1870 H 36.51040541610241 70.67344552684622 54.925324184650066 H 0.0 **** 0.06
1871 C 40.869524034155944 23.638207689826032 44.85190307776779 C 0.0 **** -0.24
1872 H 40.95923015244634 23.26833589500341 45.8731237752544 H 0.0 **** 0.06
1873 H 40.87182161210265 24.72816070664411 44.858700256545426 H 0.0 **** 0.06
1874 H 39.93776894160328 23.27793086741528 44.41600961091044 H 0.0 **** 0.06
1875 H 41.71074234392182 23.276442719121242 44.25984652034097 H 0.0 **** 0.06
1876 C 84.055997026407 42.939799680729834 14.335250496219757 C 0.0 **** -0.24
1877 H 82.97380157712365 43.06848790630738 14.335877966838808 H 0.0 **** 0.06
1878 H 84.34437092699244 42.28236805133997 15.156440658956939 H 0.0 **** 0.06
1879 H 84.53724672602897 43.90928255177238 14.459325857059696 H 0.0 **** 0.06
1880 H 84.36849425928631 42.49741737320636 13.388813767498817 H 0.0 **** 0.06
1881 C 127.53614589938962 27.96027003183655 25.16689708995689 C 0.0 **** -0.24
1882 H 128.18747302813824 28.256813810879756 24.344875916145355 H 0.0 **** 0.06
1883 H 127.69921728286113 26.907411233076168 25.396812572792086 H 0.0 **** 0.06
1884 H 126.49629742597233 28.11378941521903 24.8801150010623 H 0.0 **** 0.06
1885 H 127.76261978672136 28.565050055238856 26.04590325466212 H 0.0 **** 0.06
1886 C 33.816643796317834 11.812927097099092 107.18293749974606 C 0.0 **** -0.24
1887 H 34.08696623335544 12.341304539982701 108.09765448311711 H 0.0 **** 0.06
1888 H 33.28574346388149 12.49154070589573 106.51505091906307 H 0.0 **** 0.06
1889 H 33.17476766913407 10.967050079242483 107.42914101535001 H 0.0 **** 0.06
1890 H 34.7203194482326 11.4523265576791 106.69170474135939 H 0.0 **** 0.06
1891 C 14.766802988474069 114.3140081117318 59.99546654890486 C 0.0 **** -0.24
1892 H 15.002280289766873 113.26862889664935 60.193428083402395 H 0.0 **** 0.06
1893 H 14.289124119511456 114.75057264558009 60.873620551356254 H 0.0 **** 0.06
1894 H 14.09081194602851 114.37936518419409 59.14353898443058 H 0.0 **** 0.06
1895 H 15.685723017954217 114.85725664721159 59.77360826042306 H 0.0 **** 0.06
1896 C 75.20965598970218 31.532476049367574 123.48884390756854 C 0.0 **** -0.24
1897 H 74.6000640576467 32.296612248243036 123.00773523439719 H 0.0 **** 0.06
1898 H 74.95830251089842 31.480613887646825 124.54838759482186 H 0.0 **** 0.06
1899 H 76.26369085755664 31.787016250839315 123.3786266813797 H 0.0 **** 0.06
1900 H 75.01806195968351 30.566779894538115 123.02221163689714 H 0.0 **** 0.06
1901 C 59.63101012698277 67.00947618053428 51.60063689325736 C 0.0 **** -0.24
1902 H 60.30045941630165 66.564376098087 50.86478527007576 H 0.0 **** 0.06
1903 H 59.17618915593495 66.22126188700277 52.2012376000182 H 0.0 **** 0.06
1904 H 58.851078846951125 67.57297199654363 51.08866939655991 H 0.0 **** 0.06
1905 H 60.197542791682906 67.67916825283908 52.24854227380115 H 0.0 **** 0.06
1906 C 25.948608011715436 55.04974916150138 42.66164618486005 C 0.0 **** -0.24
1907 H 25.889345012988684 54.072975953932314 43.14225005692981 H 0.0 **** 0.06
1908 H 26.957608773871925 55.205023819826295 42.279092496366445 H 0.0 **** 0.06
1909 H 25.71227584548859 55.827407758966615 43.3893785340519 H 0.0 **** 0.06
1910 H 25.236038911011576 55.094204576021184 41.837843983113146 H 0.0 **** 0.06
1911 C 96.59777941212202 60.32616250109221 69.99046868118037 C 0.0 **** -0.24
1912 H 96.61796070593601 61.3461620442807 70.37613404900436 H 0.0 **** 0.06
1913 H 95.61534201580669 59.88988622385311 70.17108937771874 H 0.0 **** 0.06
1914 H 97.35851898923426 59.73177506981156 70.49595054318065 H 0.0 **** 0.06
1915 H 96.7987664735158 60.339074540009605 68.91951746180192 H 0.0 **** 0.06
1916 C 124.47602375475186 134.32637184745104 70.66871318585436 C 0.0 **** -0.24
1917 H 124.56825605475727 133.3728361212866 71.18837063910394 H 0.0 **** 0.06
1918 H 124.370013215723 134.14716679707644 69.59773817163153 H 0.0 **** 0.06
1919 H 125.36755766560339 134.9276638947184 70.85033444105227 H 0.0 **** 0.06
1920 H 123.5986687200365 134.8579400248237 71.03750104878551 H 0.0 **** 0.06
1921 C 109.64393533403052 59.58318725576396 97.69885393998518 C 0.0 **** -0.24
1922 H 110.11085155680604 59.03732191409753 96.87896410835975 H 0.0 **** 0.06
1923 H 108.72172343829459 59.08055348904249 97.99169453379966 H 0.0 **** 0.06
1924 H 109.41867930088333 60.60008617423752 97.37667014887475 H 0.0 **** 0.06
1925 H 110.32652515374755 59.6140519464025 98.54863956773393 H 0.0 **** 0.06
1926 C 27.13736728846058 96.00847958554996 60.19059467651721 C 0.0 **** -0.24
1927 H 28.000920182633507 96.67410685762081 60.15733992807374 H 0.0 **** 0.06
1928 H 27.3403211761744 95.18663185667134 60.87670549701026 H 0.0 **** 0.06
1929 H 26.94704540530254 95.61214698803232 59.19291780464167 H 0.0 **** 0.06
1930 H 26.26476975399362 96.5628673418741 60.53454056256399 H 0.0 **** 0.06
1931 C 39.74330427389302 92.03927218467985 70.81239568162573 C 0.0 **** -0.24
1932 H 39.32373335867399 92.30181095284215 71.78327295473639 H 0.0 **** 0.06
1933 H 40.16925282882195 91.03662608327757 70.86006881381616 H 0.0 **** 0.06
1934 H 40.52321880703076 92.75326087699393 70.54816184741458 H 0.0 **** 0.06
1935 H 38.95701210104545 92.06539082560558 70.05807911053569 H 0.0 **** 0.06
1936 C 26.094075682064727 25.70023988623484 45.746552771090876 C 0.0 **** -0.24
1937 H 25.820924445448952 26.214521717991715 44.8254177986667 H 0.0 **** 0.06
1938 H 25.733167339803913 26.272184903459333 46.60221870721088 H 0.0 **** 0.06
1939 H 27.178370056115455 25.60676900737127 45.80317384037021 H 0.0 **** 0.06
1940 H 25.642124260744197 24.708286276778495 45.75604073610691 H 0.0 **** 0.06
1941 C 120.40433971052278 71.08750710633012 123.745623688308 C 0.0 **** -0.24
1942 H 119.72403461494429 70.30951185453375 123.40006269625644 H 0.0 **** 0.06
1943 H 120.6547601537265 70.9134517486234 124.79231104236203 H 0.0 **** 0.06
1944 H 119.92413181634345 72.0611113131475 123.64309402882733 H 0.0 **** 0.06
1945 H 121.31452087373775 71.0675339147611 123.14544752496025 H 0.0 **** 0.06
1946 C 0.15759662218155768 127.58857721762888 105.64574000002692 C 0.0 **** -0.24
1947 H 1.1495693089616736 128.03412881617135 105.72582784172211 H 0.0 **** 0.06
1948 H 0.15155042391236861 126.6228511836809 106.15239746933717 H 0.0 **** 0.06
1949 H -0.09268125015591977 127.44890964143462 104.59401521452394 H 0.0 **** 0.06
1950 H -0.5750658698146935 128.24800089854625 106.10933796388412 H 0.0 **** 0.06
1951 C 74.5912542552071 20.266406605368786 8.274426661093855 C 0.0 **** -0.24
1952 H 73.76470133915564 20.968251308513288 8.163465628217011 H 0.0 **** 0.06
1953 H 75.53558279788444 20.811234372449917 8.253250894298844 H 0.0 **** 0.06
1954 H 74.56873468327512 19.545256871081676 7.458499637409261 H 0.0 **** 0.06
1955 H 74.49651388458449 19.741840651953453 9.225286741638058 H 0.0 **** 0.06
1956 C 26.302835471447167 134.99833130072108 56.63569611068614 C 0.0 **** -0.24
1957 H 27.068806698884146 134.2425292850788 56.46045776030735 H 0.0 **** 0.06
1958 H 25.32042334341935 134.57493462673585 56.4288007570065 H 0.0 **** 0.06
1959 H 26.47771257335245 135.85065131987727 55.97800871177111 H 0.0 **** 0.06
1960 H 26.34657780422515 135.32642718151575 57.674185763694766 H 0.0 **** 0.06
1961 C 112.2084934827987 15.478845041822524 53.24685273319682 C 0.0 **** -0.24
1962 H 111.83902653347965 15.050870778300833 52.314706668265444 H 0.0 **** 0.06
1963 H 113.06249294286391 16.124233375989036 53.03696951537944 H 0.0 **** 0.06
1964 H 112.51550277375532 14.676465980479435 53.91763078497809 H 0.0 **** 0.06
1965 H 111.41700809747516 16.063279944316065 53.716794034249915 H 0.0 **** 0.06
1966 C 21.006975020499112 102.26629913355907 68.3831437788149 C 0.0 **** -0.24
1967 H 20.627017174151433 101.66664961009508 69.21056299996545 H 0.0 **** 0.06
1968 H 22.08819170143545 102.36789644012305 68.47385493470009 H 0.0 **** 0.06
1969 H 20.54498457171053 103.25362838971245 68.40826077091018 H 0.0 **** 0.06
1970 H 20.765898000181323 101.77683510743833 67.43906330556183 H 0.0 **** 0.06
1971 C 61.85626648766734 65.05438958835275 98.94951962546045 C 0.0 **** -0.24
1972 H 62.23834493329889 66.02103619628458 98.62141833665444 H 0.0 **** 0.06
1973 H 62.52762966514507 64.63417237097762 99.69788050188292 H 0.0 **** 0.06
1974 H 61.79415370709981 64.3799721372353 98.09527131175032 H 0.0 **** 0.06
1975 H 60.863967974884815 65.18493162378883 99.38226844467134 H 0.0 **** 0.06
1976 C 24.111406789501842 128.44676020101178 105.29939049408294 C 0.0 **** -0.24
1977 H 23.814807010698104 129.2628682058742 104.64106509982561 H 0.0 **** 0.06
1978 H 24.931486943031217 127.89150308279693 104.84383462610342 H 0.0 **** 0.06
1979 H 23.262799989285867 127.77890190337683 105.4544709661233 H 0.0 **** 0.06
1980 H 24.433987488734715 128.8525411575376 106.25806695388187 H 0.0 **** 0.06
1981 C 131.11738445526134 15.912833258784232 8.565766665110061 C 0.0 **** -0.24
1982 H 130.20708920535515 15.433633937451589 8.925108560167075 H 0.0 **** 0.06
1983 H 130.91374086290813 16.96266143509773 8.34937059869003 H 0.0 **** 0.06
1984 H 131.45682938083803 15.414109137185449 7.658804492820707 H 0.0 **** 0.06
1985 H 131.89101805301 15.84260233467819 9.33099066996175 H 0.0 **** 0.06
1986 C 8.6716420447284 26.33358524242925 93.79852180870562 C 0.0 **** -0.24
1987 H 9.617806092156798 26.703510507122914 93.40419081705289 H 0.0 **** 0.06
1988 H 8.12154369169508 25.825457054826416 93.00628028942806 H 0.0 **** 0.06
1989 H 8.081372302603825 27.17209874668484 94.170124912202 H 0.0 **** 0.06
1990 H 8.865004066328765 25.63597371314647 94.61357171911875 H 0.0 **** 0.06
1991 C 79.75315338971211 11.097187801588746 126.19574207212916 C 0.0 **** -0.24
1992 H 78.8045614526748 11.038860019149809 125.6628450584564 H 0.0 **** 0.06
1993 H 79.93285654044682 10.158388133667131 126.72154252452847 H 0.0 **** 0.06
1994 H 79.71587728147097 11.915358763449206 126.91498808778168 H 0.0 **** 0.06
1995 H 80.55937650035351 11.27474219218027 125.48376818834558 H 0.0 **** 0.06
1996 C 55.37848199013008 128.62365722178106 63.36698680035704 C 0.0 **** -0.24
1997 H 55.95097316203095 129.39237904332475 63.88563278860653 H 0.0 **** 0.06
1998 H 55.768945453268074 128.5010789523207 62.35641966112931 H 0.0 **** 0.06
1999 H 54.330798757381714 128.92128588972125 63.31842648868286 H 0.0 **** 0.06
2000 H 55.46403006744637 127.68111756747248 63.90656861087035 H 0.0 **** 0.06
2001 C 57.56830972683666 107.56003780755492 104.41214096764953 C 0.0 **** -0.24
2002 H 58.60164310046069 107.2416949141105 104.54670679716249 H 0.0 **** 0.06
2003 H 57.52783693157106 108.64815439606434 104.35534889371013 H 0.0 **** 0.06
2004 H 56.96924739101938 107.21741876081924 105.25640728365457 H 0.0 **** 0.06
2005 H 57.17366043394652 107.1334082761986 103.49009745879329 H 0.0 **** 0.06
2006 C 136.68271126188858 97.67065011768845 48.35683788963598 C 0.0 **** -0.24
2007 H 137.48582939744557 98.36431767683311 48.10527735554119 H 0.0 **** 0.06
2008 H 136.826339237016 96.73603202996433 47.81346310492182 H 0.0 **** 0.06
2009 H 135.72463279499908 98.10897360873516 48.07854271909561 H 0.0 **** 0.06
2010 H 136.69554251397716 97.47389382568171 49.42852783998654 H 0.0 **** 0.06
2011 C 13.97800946286958 1.927569038651498 125.20671323261627 C 0.0 **** -0.24
2012 H 13.856032998083833 0.9691640117853169 124.70286546761542 H 0.0 **** 0.06
2013 H 14.028824687009887 2.7241182674597617 124.46408868257504 H 0.0 **** 0.06
2014 H 14.897930847325881 1.9151593686466022 125.79186427397332 H 0.0 **** 0.06
2015 H 13.129204492628617 2.1001532725760796 125.8684487301561 H 0.0 **** 0.06
2016 C 43.093198168423626 15.357607896726847 114.67920058372951 C 0.0 **** -0.24
2017 H 43.97998203430852 15.50257190443142 115.29525238246674 H 0.0 **** 0.06
2018 H 42.23331548557859 15.820031161767531 115.16438053192883 H 0.0 **** 0.06
2019 H 42.90922520391221 14.290865152554147 114.55338363180607 H 0.0 **** 0.06
2020 H 43.25038978687654 15.816871804178277 113.70279720311953 H 0.0 **** 0.06
2021 C 43.16351432706073 121.52149654534023 58.4576897198492 C 0.0 **** -0.24
2022 H 42.16744153522673 121.75097070542226 58.83818247168928 H 0.0 **** 0.06
2023 H 43.14950026464187 121.54206911260032 57.368638127772016 H 0.0 **** 0.06
2024 H 43.462920926137336 120.53063919531458 58.79940080705563 H 0.0 **** 0.06
2025 H 43.872201501080774 122.26319450832635 58.82740816220435 H 0.0 **** 0.06
2026 C 131.2458656908216 14.052199919952898 54.25889253078287 C 0.0 **** -0.24
2027 H 131.1362074529997 15.08475011856683 53.927103097872475 H 0.0 **** 0.06
2028 H 131.14147853339034 14.006016244116495 55.34326492435483 H 0.0 **** 0.06
2029 H 132.22996487701252 13.681268831132172 53.971553002997226 H 0.0 **** 0.06
2030 H 130.47557011873195 13.437922611589329 53.79238401845333 H 0.0 **** 0.06
2031 C 53.94408327437117 32.275727075014956 71.44608115401512 C 0.0 **** -0.24
2032 H 54.77785169665776 31.921250724867484 72.05254864803312 H 0.0 **** 0.06
2033 H 53.728277070331956 31.545610905180617 70.66453254262817 H 0.0 **** 0.06
2034 H 54.206855594933984 33.23024558345093 70.98974114887868 H 0.0 **** 0.06
2035 H 53.06492387769708 32.40354826861944 72.07630054622956 H 0.0 **** 0.06
2036 C 56.995525915816074 73.51980804803894 46.01210073347295 C 0.0 **** -0.24
2037 H 58.01724813041437 73.86466264962276 45.85001085502449 H 0.0 **** 0.06
2038 H 56.72039039959162 72.81797282869206 45.22395868000922 H 0.0 **** 0.06
2039 H 56.317164887053025 74.37303295952648 45.991811599343634 H 0.0 **** 0.06
2040 H 56.92769484354551 73.02465839940763 46.98046626636983 H 0.0 **** 0.06
2041 C 13.638191292574646 33.30908673029194 123.3662941076936 C 0.0 **** -0.24
2042 H 13.539282610422617 32.28831513572345 123.73530966045085 H 0.0 **** 0.06
2043 H 12.650295707765224 33.76383709991515 123.28616592587265 H 0.0 **** 0.06
2044 H 14.113564134005571 33.296627595296 122.38550131978498 H 0.0 **** 0.06
2045 H 14.249443424760074 33.887513422529025 124.0591818789916 H 0.0 **** 0.06
2046 C 33.41517589778903 55.29717081067123 12.630629037031994 C 0.0 **** -0.24
2047 H 33.76134735066442 56.304404808094944 12.861553357897915 H 0.0 **** 0.06
2048 H 33.57346956177349 54.650629478698676 13.495012969403902 H 0.0 **** 0.06
2049 H 33.972339625354124 54.90776901587182 11.778493549409191 H 0.0 **** 0.06
2050 H 32.35224486353123 55.325342134455994 12.387579395371905 H 0.0 **** 0.06
2051 C 59.28753889210236 100.86236729252401 90.68082669891983 C 0.0 **** -0.24
2052 H 58.81732234892115 100.63954139729923 89.72336283197984 H 0.0 **** 0.06
2053 H 60.36360814674077 100.96821832583292 90.54250971814979 H 0.0 **** 0.06
2054 H 59.08865073652399 100.0509482116977 91.38067141162071 H 0.0 **** 0.06
2055 H 58.87902422238581 101.79191992342534 91.07826445535908 H 0.0 **** 0.06
2056 C 27.628111350255637 63.42863556373436 97.01859766314053 C 0.0 **** -0.24
2057 H 28.27367753737547 63.834088756962245 96.23984478520015 H 0.0 **** 0.06
2058 H 27.96333255377472 63.7871834921479 97.99121841905644 H 0.0 **** 0.06
2059 H 27.672328075217337 62.3392074830067 96.99661004981049 H 0.0 **** 0.06
2060 H 26.60149629496909 63.75377638245942 96.84519318435163 H 0.0 **** 0.06
2061 C 86.03913923519232 21.057168576267372 49.76558799852097 C 0.0 **** -0.24
2062 H 85.78234775804032 20.344054664833834 48.98241960307719 H 0.0 **** 0.06
2063 H 85.23480842504455 21.09417883897973 50.50118728577111 H 0.0 **** 0.06
2064 H 86.1753634730589 22.04627033270259 49.326223891515866 H 0.0 **** 0.06
2065 H 86.96338413448956 20.746175352825333 50.25177685783051 H 0.0 **** 0.06
2066 C 110.45487376641395 92.74348039212475 60.84847678232734 C 0.0 **** -0.24
2067 H 111.09760391088639 93.58022687893231 60.574027585430656 H 0.0 **** 0.06
2068 H 109.92144273502564 92.98175260509748 61.76773826229828 H 0.0 **** 0.06
2069 H 111.06378305761163 91.85270947912949 61.000768235205214 H 0.0 **** 0.06
2070 H 109.73681888079602 92.5605376497432 60.04849663288087 H 0.0 **** 0.06
2071 C 28.825524038108654 15.413641668708863 9.421643798352648 C 0.0 **** -0.24
2072 H 28.896263997003395 14.594481831046437 8.705981108987089 H 0.0 **** 0.06
2073 H 29.1174004445287 16.34550084338713 8.9368358709375 H 0.0 **** 0.06
2074 H 29.48916550529045 15.217774602078123 10.264474864199258 H 0.0 **** 0.06
2075 H 27.79925405690601 15.496148833169173 9.780034050580127 H 0.0 **** 0.06
2076 C 98.64796335046837 42.848379462485546 60.02629614262305 C 0.0 **** -0.24
2077 H 98.19635504422567 43.4953574304962 60.778520524696916 H 0.0 **** 0.06
2078 H 98.9193718647611 43.441508301905934 59.152883485356114 H 0.0 **** 0.06
2079 H 97.93444181832449 42.07754311600976 59.735044682194 H 0.0 **** 0.06
2080 H 99.54108777388313 42.38006317326199 60.43959224182363 H 0.0 **** 0.06
2081 C 108.25738308623453 16.023658412674187 6.378518241152136 C 0.0 **** -0.24
2082 H 108.801078277299 16.80211865329811 6.914550230327066 H 0.0 **** 0.06
2083 H 107.79374234401708 15.344992395200755 7.093944496948968 H 0.0 **** 0.06
2084 H 108.94978603238724 15.468024718790929 5.745877400447053 H 0.0 **** 0.06
2085 H 107.48676728477284 16.481808607469077 5.758574093341327 H 0.0 **** 0.06
2086 C 5.073943136657704 2.031700784680311 65.79263486885353 C 0.0 **** -0.24
2087 H 5.2418908098663906 2.16110367293237 66.86150413232815 H 0.0 **** 0.06
2088 H 6.002957865741479 2.21485360566777 65.25306863325775 H 0.0 **** 0.06
2089 H 4.313407146539987 2.737369864593404 65.4562581670099 H 0.0 **** 0.06
2090 H 4.735144083611004 1.0135961654444827 65.59911153983361 H 0.0 **** 0.06
2091 C 39.641386311776046 21.626400856153026 54.80629009609393 C 0.0 **** -0.24
2092 H 40.195500770713494 22.35276071914339 55.400876995585634 H 0.0 **** 0.06
2093 H 39.12247189384705 20.93470363573121 55.470396167572574 H 0.0 **** 0.06
2094 H 40.33474811221629 21.07204346748297 54.172964421288285 H 0.0 **** 0.06
2095 H 38.915054334335196 22.146783329551482 54.18166779372207 H 0.0 **** 0.06
2096 C 129.94832205732666 78.89857376544842 56.35744506855053 C 0.0 **** -0.24
2097 H 129.65194465285148 79.70887069409372 55.69146956145397 H 0.0 **** 0.06
2098 H 130.9537972622349 78.56566987220458 56.09928874355097 H 0.0 **** 0.06
2099 H 129.25145814121802 78.06789702881292 56.25124785232509 H 0.0 **** 0.06
2100 H 129.93620181078873 79.25402079570381 57.38832848654175 H 0.0 **** 0.06
2101 C 49.18717688898809 121.69054055892508 3.2694243138735715 C 0.0 **** -0.24
2102 H 49.17474486062699 122.62722882633739 3.8261590514005377 H 0.0 **** 0.06
2103 H 49.102879600848084 120.85438479197882 3.9637351758172485 H 0.0 **** 0.06
2104 H 50.12295205635624 121.61018433045297 2.714783122371955 H 0.0 **** 0.06
2105 H 48.349038665234076 121.67142174368968 2.5727788853229754 H 0.0 **** 0.06
2106 C 113.40489695371042 46.54188504396245 114.25960658699756 C 0.0 **** -0.24
2107 H 114.49164867558227 46.47442993450977 114.29223322450116 H 0.0 **** 0.06
2108 H 113.1074444902892 47.26680881503029 113.501710397707 H 0.0 **** 0.06
2109 H 113.03137727003616 46.861262991311435 115.23293688604988 H 0.0 **** 0.06
2110 H 112.98697131635583 45.566009328219025 114.0134038491195 H 0.0 **** 0.06
2111 C 56.6105824881391 45.72555619044047 11.37349884568745 C 0.0 **** -0.24
2112 H 56.91052916713613 46.16578826545188 10.42248897408136 H 0.0 **** 0.06
2113 H 57.498585235268024 45.50627550804411 11.967201812031576 H 0.0 **** 0.06
2114 H 56.05903067828251 44.80398286413204 11.189234803190445 H 0.0 **** 0.06
2115 H 55.97632686442495 46.42759965587079 11.913890180718795 H 0.0 **** 0.06
2116 C 136.15398626361534 18.64781007045714 7.643614583180181 C 0.0 **** -0.24
2117 H 136.72768820272546 17.784911102675302 7.982119425271833 H 0.0 **** 0.06
2118 H 135.65328364389137 19.107273067274733 8.496494266652405 H 0.0 **** 0.06
2119 H 135.4099153790014 18.326317494590846 6.9156248500055995 H 0.0 **** 0.06
2120 H 136.8247211771828 19.37203794456989 7.18293936689264 H 0.0 **** 0.06
2121 C 84.62933381645254 114.40526181079284 77.85143875942333 C 0.0 **** -0.24
2122 H 84.70094622955226 115.31785071768655 78.44424755647145 H 0.0 **** 0.06
2123 H 84.80252432345902 114.64037530393898 76.80126222312003 H 0.0 **** 0.06
2124 H 83.63567483977813 113.97341975403447 77.96916012313898 H 0.0 **** 0.06
2125 H 85.37877301957273 113.69171438417763 78.19290468812602 H 0.0 **** 0.06
2126 C 53.2197359669706 59.28346727617732 103.5684749832053 C 0.0 **** -0.24
2127 H 52.77492821311138 58.64113245924784 104.32854149942392 H 0.0 **** 0.06
2128 H 52.84239700672924 60.29979985196924 103.68528468362119 H 0.0 **** 0.06
2129 H 52.958434097335214 58.91068950458697 102.57816739423791 H 0.0 **** 0.06
2130 H 54.30436463810612 59.283472516216165 103.68223247025028 H 0.0 **** 0.06
2131 C 98.54330932427527 24.297169090398448 21.223754126242824 C 0.0 **** -0.24
2132 H 97.69189184624746 24.533620719229006 21.862226509456434 H 0.0 **** 0.06
2133 H 99.3685745882015 24.970584500737516 21.45519524565526 H 0.0 **** 0.06
2134 H 98.25787132524759 24.416763308370378 20.178629046738422 H 0.0 **** 0.06
2135 H 98.85439819913337 23.26669181157503 21.3998121383363 H 0.0 **** 0.06
2136 C 109.53259990801973 27.77221822850629 73.4055881028064 C 0.0 **** -0.24
2137 H 110.00193846702459 28.744638273630557 73.25333607785404 H 0.0 **** 0.06
2138 H 110.13975152532637 26.997856352041822 72.93575547102563 H 0.0 **** 0.06
2139 H 108.53742488244744 27.77559263500973 72.96122413967358 H 0.0 **** 0.06
2140 H 109.45205670260047 27.57186738423914 74.47453358659787 H 0.0 **** 0.06
2141 C 113.95937628619191 107.36034292260092 111.43193835506793 C 0.0 **** -0.24
2142 H 114.48032137509566 108.27462730471655 111.71818020606366 H 0.0 **** 0.06
2143 H 113.33155293826258 107.02726719744635 112.25856492211756 H 0.0 **** 0.06
2144 H 114.68895667547653 106.58565668504195 111.19506123312624 H 0.0 **** 0.06
2145 H 113.33838013295494 107.55484934995229 110.55795491541562 H 0.0 **** 0.06
2146 C 50.100852044206476 30.257404770621626 40.732733083619834 C 0.0 **** -0.24
2147 H 49.39811075582986 31.039483016966166 41.02087433243779 H 0.0 **** 0.06
2148 H 49.824773927502406 29.32277865983388 41.22036505737855 H 0.0 **** 0.06
2149 H 51.10697997033253 30.543553525616815 41.03818605725393 H 0.0 **** 0.06
2150 H 50.07382038870389 30.125468141309376 39.651114817215856 H 0.0 **** 0.06
2151 C 82.04775118085024 124.25574132066905 7.990850123178404 C 0.0 **** -0.24
2152 H 81.99237177196693 125.22575174305419 8.48521737182 H 0.0 **** 0.06
2153 H 81.6656263639785 124.34453797283754 6.973543938287662 H 0.0 **** 0.06
2154 H 81.44775035472969 123.53263601011469 8.543246517734758 H 0.0 **** 0.06
2155 H 83.0850143181558 123.92212215354127 7.963291253395084 H 0.0 **** 0.06
2156 C 38.17830154843924 74.18917093695723 2.2512182400292318 C 0.0 **** -0.24
2157 H 37.226347803698104 74.32865719901297 1.7397569280904008 H 0.0 **** 0.06
2158 H 38.36512140781976 75.03802720946607 2.9092079396622523 H 0.0 **** 0.06
2159 H 38.97800245133513 74.11680462282084 1.5150079560035294 H 0.0 **** 0.06
2160 H 38.14373453090383 73.27319471652915 2.8409001363607445 H 0.0 **** 0.06
2161 C 24.771770125826123 120.4816695988919 107.97961199815748 C 0.0 **** -0.24
2162 H 23.940066644809292 121.02807085592639 108.42424110443801 H 0.0 **** 0.06
2163 H 24.49044195667753 119.43626792664645 107.84882624323882 H 0.0 **** 0.06
2164 H 25.639248719454088 120.54520465148437 108.63542155958041 H 0.0 **** 0.06
2165 H 25.015173126024933 120.9159875488476 107.01020602666586 H 0.0 **** 0.06
2166 C 135.06731191409963 16.105636625440724 43.86925120064241 C 0.0 **** -0.24
2167 H 134.80188958151427 15.793018116349131 42.85980894326116 H 0.0 **** 0.06
2168 H 134.79382259084602 17.15129082703814 44.01001674343374 H 0.0 **** 0.06
2169 H 136.14168630673734 15.98833593824989 44.01532766759854 H 0.0 **** 0.06
2170 H 134.53363380204652 15.489162364462729 44.59335773299725 H 0.0 **** 0.06
2171 C 67.92682034333484 5.025644265099345 1.137479206413218 C 0.0 **** -0.24
2172 H 67.33491009815552 4.57990112128104 0.3382900192896159 H 0.0 **** 0.06
2173 H 67.32374327834647 5.0885372392417025 2.044165296025426 H 0.0 **** 0.06
2174 H 68.24198280377428 6.0264941266551375 0.8407077686288744 H 0.0 **** 0.06
2175 H 68.8055637573591 4.408554227369706 1.3268095882678494 H 0.0 **** 0.06
2176 C 63.221962523113774 93.03445231794498 91.60938321289935 C 0.0 **** -0.24
2177 H 63.30776858181741 93.50529946814531 90.62985405895394 H 0.0 **** 0.06
2178 H 63.96286370290744 93.46222483829007 92.28450109607785 H 0.0 **** 0.06
2179 H 63.39388366709727 91.96259368808425 91.51216567434452 H 0.0 **** 0.06
2180 H 62.222312698619646 93.20760139276139 92.00878741999352 H 0.0 **** 0.06
2181 C 134.79251191824397 78.16169553246459 0.7570364607257147 C 0.0 **** -0.24
2182 H 135.57470491087395 77.9171938301142 1.4762597488177391 H 0.0 **** 0.06
2183 H 133.8245735728354 77.85655077818213 1.1550516810873717 H 0.0 **** 0.06
2184 H 134.98325073329147 77.6376206575925 -0.17928628001604352 H 0.0 **** 0.06
2185 H 134.7878276637494 79.2368790682154 0.5769961862094419 H 0.0 **** 0.06
2186 C 101.0668659138816 15.003423907558627 101.67033482219132 C 0.0 **** -0.24
2187 H 100.36505766478673 14.169783626732581 101.63014561904849 H 0.0 **** 0.06
2188 H 102.08437243402207 14.618960599733704 101.74164760904159 H 0.0 **** 0.06
2189 H 100.8485319534655 15.619481168606711 102.54377221935279 H 0.0 **** 0.06
2190 H 100.96773947509931 15.605610087941123 100.76714335850234 H 0.0 **** 0.06
2191 C 131.39651401046225 34.22454054369305 126.58161784936078 C 0.0 **** -0.24
2192 H 131.94661544076163 33.29513567559354 126.43255379062697 H 0.0 **** 0.06
2193 H 130.4529939728578 34.01094588146731 127.08545849398104 H 0.0 **** 0.06
2194 H 131.19529051320754 34.686089724950904 125.61509340576043 H 0.0 **** 0.06
2195 H 131.98967957591807 34.90438374386821 127.19287874049928 H 0.0 **** 0.06
2196 C 36.46795603807673 118.99989553638369 55.615389991063296 C 0.0 **** -0.24
2197 H 37.162137414584365 118.67068260188103 54.84219718081525 H 0.0 **** 0.06
2198 H 35.74163540905298 118.20964642437096 55.811116459783904 H 0.0 **** 0.06
2199 H 35.94670607222987 119.89592996974471 55.27828936150178 H 0.0 **** 0.06
2200 H 37.01971010068228 119.22126965873468 56.528504427027485 H 0.0 **** 0.06
2201 C 47.39572975098845 97.21000334146241 85.71611223263416 C 0.0 **** -0.24
2202 H 47.884815411490436 97.81353228305149 84.95212921595964 H 0.0 **** 0.06
2203 H 47.33792494268275 96.17492631033693 85.37821839946206 H 0.0 **** 0.06
2204 H 46.38979516972725 97.59108816710595 85.89184507403469 H 0.0 **** 0.06
2205 H 47.96912194457619 97.25854419890048 86.64141175322277 H 0.0 **** 0.06
2206 C 103.53732815552061 27.266521518312715 127.38863644730185 C 0.0 **** -0.24
2207 H 103.6150560344984 26.620444058250484 126.51437027489288 H 0.0 **** 0.06
2208 H 104.44766947269909 27.18402543366011 127.98359040244497 H 0.0 **** 0.06
2209 H 102.68110078840468 26.961564521068624 127.99038389691839 H 0.0 **** 0.06
2210 H 103.40523125367929 28.29915664532865 127.06726576304254 H 0.0 **** 0.06
2211 C 112.10125656825011 79.36107750213931 45.66366952888359 C 0.0 **** -0.24
2212 H 111.89444077551755 79.8057489644971 46.63661276203993 H 0.0 **** 0.06
2213 H 111.3051708563195 79.62733828885652 44.96664018549319 H 0.0 **** 0.06
2214 H 112.14932248218753 78.27583119068137 45.762791959816866 H 0.0 **** 0.06
2215 H 113.05414657508811 79.73443044949603 45.28809358519038 H 0.0 **** 0.06
2216 C 91.49017321898879 9.299971063912551 47.901394181019256 C 0.0 **** -0.24
2217 H 91.76692199931131 8.267810343170908 48.11446784420053 H 0.0 **** 0.06
2218 H 92.31560761602856 9.95976241996172 48.17120438768609 H 0.0 **** 0.06
2219 H 90.60642265855196 9.565929145045686 48.48075268448258 H 0.0 **** 0.06
2220 H 91.27322258265147 9.40558826613389 46.83873550564756 H 0.0 **** 0.06
2221 C 121.97994067807649 124.71781426570703 112.20685796043543 C 0.0 **** -0.24
2222 H 122.71994674546332 125.50698960377005 112.0771686113907 H 0.0 **** 0.06
2223 H 121.26207497386604 124.75500927052201 111.38712785205578 H 0.0 **** 0.06
2224 H 121.45860049288576 124.85937617616534 113.15350979359343 H 0.0 **** 0.06
2225 H 122.47919689780124 123.74892351117094 112.20858722665142 H 0.0 **** 0.06
2226 C 105.72448623562826 93.87626524991248 93.82949101678614 C 0.0 **** -0.24
2227 H 105.24657841101964 93.85838094928317 92.85032540463499 H 0.0 **** 0.06
2228 H 106.4649113673865 93.07776780771576 93.88668863129263 H 0.0 **** 0.06
2229 H 104.97205296737226 93.73098226180116 94.60424392213707 H 0.0 **** 0.06
2230 H 106.21522991576072 94.83826578197869 93.97560965501822 H 0.0 **** 0.06
2231 C 39.75558951420334 80.90068120895671 114.9165138776641 C 0.0 **** -0.24
2232 H 39.1956162981919 80.19814662680119 114.29872649372226 H 0.0 **** 0.06
2233 H 39.67045443841532 81.9021965578809 114.49472235261493 H 0.0 **** 0.06
2234 H 40.80432796288796 80.60495424598588 114.94278718327155 H 0.0 **** 0.06
2235 H 39.35139780568108 80.89625180752427 115.92800210335062 H 0.0 **** 0.06
2236 C 2.230773043876468 129.0757392313974 94.49736218903399 C 0.0 **** -0.24
2237 H 1.3257500601056904 128.79382090056174 95.0354397987033 H 0.0 **** 0.06
2238 H 2.0198533307693083 129.11827233084767 93.42876971488906 H 0.0 **** 0.06
2239 H 3.0096179812231867 128.33624524380906 94.68499559076349 H 0.0 **** 0.06
2240 H 2.5677061424941883 130.05390077343498 94.84145109506744 H 0.0 **** 0.06
2241 C 113.93570969307746 134.43408763591833 26.27160801661274 C 0.0 **** -0.24
2242 H 114.04512189343677 135.34979240367002 26.85207315702268 H 0.0 **** 0.06
2243 H 113.09113858985049 133.86066704332333 26.65324334179138 H 0.0 **** 0.06
2244 H 114.8466391783989 133.8399693681292 26.356012409206897 H 0.0 **** 0.06
2245 H 113.76200342832388 134.68462462990283 25.225340657076693 H 0.0 **** 0.06
2246 C 34.378511933843924 68.15912215068141 0.12987210951095562 C 0.0 **** -0.24
2247 H 34.539816856888805 69.16671598473508 -0.25389666155965074 H 0.0 **** 0.06
2248 H 35.31745485543763 67.60518650359973 0.09944826804618856 H 0.0 **** 0.06
2249 H 33.636040471035614 67.65068455788204 -0.4837330719514057 H 0.0 **** 0.06
2250 H 34.02239808710996 68.21582709668832 1.1592600887775575 H 0.0 **** 0.06
2251 C 33.98268120805176 10.600028224981315 115.54239851142131 C 0.0 **** -0.24
2252 H 34.19118800784668 11.181331781087408 114.64490639706096 H 0.0 **** 0.06
2253 H 32.90842107069395 10.433988970597852 115.62571240971883 H 0.0 **** 0.06
2254 H 34.33614453998027 11.14359404599685 116.41805591595755 H 0.0 **** 0.06
2255 H 34.49418156719892 9.63935514727757 115.47951210814534 H 0.0 **** 0.06
2256 C 83.96496201368876 61.47420339994916 129.7486448030137 C 0.0 **** -0.24
2257 H 84.22018188801164 60.41409670346556 129.72222999830922 H 0.0 **** 0.06
2258 H 83.07755946288721 61.64859010183913 129.14046469991558 H 0.0 **** 0.06
2259 H 84.79675663538686 62.05763220003429 129.35466437696908 H 0.0 **** 0.06
2260 H 83.76581431306295 61.77353182123524 130.77730301574076 H 0.0 **** 0.06
2261 C 4.382534892306069 51.08490071615563 115.12310795106643 C 0.0 **** -0.24
2262 H 4.0778725951659 50.40329213670532 114.3293733231651 H 0.0 **** 0.06
2263 H 3.7905920446220875 50.88938390877837 116.01708551891946 H 0.0 **** 0.06
2264 H 4.223382046416191 52.11352586162826 114.7992673244351 H 0.0 **** 0.06
2265 H 5.438782660462323 50.93393175047521 115.3460139562934 H 0.0 **** 0.06
2266 C 39.65568237226646 56.41219106779505 39.8540470394903 C 0.0 **** -0.24
2267 H 38.770474647109495 56.62619306226206 39.25570979441534 H 0.0 **** 0.06
2268 H 40.42123902015972 57.16063300379808 39.649964361643896 H 0.0 **** 0.06
2269 H 40.03630659269167 55.42368906324917 39.597613741666606 H 0.0 **** 0.06
2270 H 39.39530713176287 56.4376853008646 40.91233048652734 H 0.0 **** 0.06
2271 C 74.19582794221766 98.87973610870891 94.38612269233897 C 0.0 **** -0.24
2272 H 73.67604993959236 99.45000058249273 93.61598871883938 H 0.0 **** 0.06
2273 H 74.53937892884875 99.55779356665104 95.16874901868536 H 0.0 **** 0.06
2274 H 75.05195188298052 98.36997351133142 93.9449935483117 H 0.0 **** 0.06
2275 H 73.51554183492901 98.14415130962092 94.81479256022031 H 0.0 **** 0.06
2276 C 5.374478941427803 44.43377294307578 44.072059126380594 C 0.0 **** -0.24
2277 H 5.64410782621826 43.50461076087845 43.56983211250838 H 0.0 **** 0.06
2278 H 4.840215957109827 45.081229187667304 43.37611043754191 H 0.0 **** 0.06
2279 H 6.278935172360491 44.93654340503156 44.4156459223764 H 0.0 **** 0.06
2280 H 4.735627619264303 44.21290072985627 44.926791532891315 H 0.0 **** 0.06
2281 C 48.285047805332226 120.58544959692401 94.7687628807415 C 0.0 **** -0.24
2282 H 47.89314476470827 120.54960354341654 95.78471715118063 H 0.0 **** 0.06
2283 H 49.197920066162794 121.18045903460762 94.7526369847354 H 0.0 **** 0.06
2284 H 47.544560078581014 121.03898425934854 94.10945238762405 H 0.0 **** 0.06
2285 H 48.503832226001805 119.57397731272998 94.42726583473623 H 0.0 **** 0.06
2286 C 97.64035101730485 90.29868224051876 130.14737641036032 C 0.0 **** -0.24
2287 H 98.24277719616583 89.40881949641854 130.32942598835973 H 0.0 **** 0.06
2288 H 97.03142031731245 90.51066820577412 131.02724600213818 H 0.0 **** 0.06
2289 H 96.99121960408348 90.12873700611736 129.28876121229266 H 0.0 **** 0.06
2290 H 98.2956674669367 91.14586843179703 129.94641635375513 H 0.0 **** 0.06
2291 C 39.06345006083572 25.47202051496663 9.599048905695017 C 0.0 **** -0.24
2292 H 39.68921591775634 25.843167935296194 8.786512867390588 H 0.0 **** 0.06
2293 H 39.65993856116751 25.394994942925422 10.508854190237404 H 0.0 **** 0.06
2294 H 38.67330064378265 24.489106696944603 9.335878054254291 H 0.0 **** 0.06
2295 H 38.23478735204938 26.16035889015899 9.763555540022008 H 0.0 **** 0.06
2296 C 106.58900417472283 83.86218146255237 43.19381371479369 C 0.0 **** -0.24
2297 H 105.95845445851225 82.99136946748871 43.37585390314632 H 0.0 **** 0.06
2298 H 106.08093570299086 84.54267163054787 42.51133912277396 H 0.0 **** 0.06
2299 H 107.53206756545603 83.54038787622603 42.75114405628881 H 0.0 **** 0.06
2300 H 106.78491899436005 84.37190867615199 44.13732663350626 H 0.0 **** 0.06
2301 C 118.04679845724928 61.66179051931806 26.818818150373772 C 0.0 **** -0.24
2302 H 118.62396692669063 62.244973127723995 27.536687000680104 H 0.0 **** 0.06
2303 H 118.01273893781891 60.62060925809919 27.141738662049647 H 0.0 **** 0.06
2304 H 118.51759126852993 61.72360331222529 25.837502000834547 H 0.0 **** 0.06
2305 H 117.03213861606369 62.057405484545825 26.76136969121808 H 0.0 **** 0.06
2306 C 10.975321555703772 42.86326592187808 125.77950660846739 C 0.0 **** -0.24
2307 H 11.28854559247111 43.48730731132673 124.94282083430602 H 0.0 **** 0.06
2308 H 10.925446485472946 43.466947703797906 126.68516647880881 H 0.0 **** 0.06
2309 H 11.694416958926581 42.056428562177715 125.91854727208414 H 0.0 **** 0.06
2310 H 9.991982405481508 42.441079938560634 125.56857475569734 H 0.0 **** 0.06
2311 C 33.64633541689528 21.709500048472705 19.43644973459385 C 0.0 **** -0.24
2312 H 34.21812549966393 22.606889396482643 19.19887543348446 H 0.0 **** 0.06
2313 H 34.291235746377595 20.992048883579628 19.944749345575303 H 0.0 **** 0.06
2314 H 33.2643052003456 21.26828206513335 18.51634994379242 H 0.0 **** 0.06
2315 H 32.81225656867275 21.973128858338214 20.087597519198823 H 0.0 **** 0.06
2316 C 49.14127699499501 9.985605788444218 73.91713289957407 C 0.0 **** -0.24
2317 H 48.38245760949357 9.902608491094867 73.13983977982053 H 0.0 **** 0.06
2318 H 49.36549562707006 8.99513507464539 74.31275749326231 H 0.0 **** 0.06
2319 H 48.77121879466553 10.622938687587975 74.72040233050072 H 0.0 **** 0.06
2320 H 50.04700786472148 10.421737236152069 73.49460945722461 H 0.0 **** 0.06
2321 C 134.69568599828034 75.82910351472798 25.720666198226326 C 0.0 **** -0.24
2322 H 133.74816902545123 75.5140980113488 26.155976555537308 H 0.0 **** 0.06
2323 H 134.50973513932448 76.57168068636389 24.943735342612825 H 0.0 **** 0.06
2324 H 135.200181413686 74.96615728397279 25.285472835596607 H 0.0 **** 0.06
2325 H 135.325391250714 76.26464470951424 26.496820338502175 H 0.0 **** 0.06
2326 C 19.94724246014195 19.270640431482235 55.42992972172243 C 0.0 **** -0.24
2327 H 18.909238251425222 18.99043831303073 55.25035493931222 H 0.0 **** 0.06
2328 H 20.536883092549658 19.073736097000925 54.53494277251963 H 0.0 **** 0.06
2329 H 20.34178339101456 18.68664292682366 56.261652901465965 H 0.0 **** 0.06
2330 H 19.99984324648119 20.331820135861634 55.674639517697585 H 0.0 **** 0.06
2331 C 105.91600293876434 70.49017411809405 86.09865400557763 C 0.0 **** -0.24
2332 H 105.89254652873925 69.62170162471185 85.4403232443624 H 0.0 **** 0.06
2333 H 106.938144231758 70.86275179632494 86.17108429310895 H 0.0 **** 0.06
2334 H 105.56121361700994 70.2063997846478 87.08901893128828 H 0.0 **** 0.06
2335 H 105.27244900364693 71.27034698809274 85.69203785931306 H 0.0 **** 0.06
2336 C 64.7769718627948 40.214205444829474 116.78344003721355 C 0.0 **** -0.24
2337 H 64.33456813951318 40.23346592421365 117.77934818216883 H 0.0 **** 0.06
2338 H 65.10212071172751 41.217925826557035 116.51112836395279 H 0.0 **** 0.06
2339 H 64.0361057980611 39.863923862199414 116.06348140431493 H 0.0 **** 0.06
2340 H 65.63353753859357 39.54042358984205 116.7791623784324 H 0.0 **** 0.06
2341 C 92.76358904036066 68.79314186727868 71.89787999838464 C 0.0 **** -0.24
2342 H 92.35949149242117 67.79094336013796 72.0443703895877 H 0.0 **** 0.06
2343 H 93.45735944445836 68.78488918032888 71.05628053647251 H 0.0 **** 0.06
2344 H 93.28885730208401 69.10823514305166 72.79957925510602 H 0.0 **** 0.06
2345 H 91.94842514917235 69.48644072840948 71.69044667105 H 0.0 **** 0.06
2346 C 72.4174866869059 58.4419917048358 121.72441623468424 C 0.0 **** -0.24
2347 H 73.36286895689557 58.373234885280056 121.18586359632893 H 0.0 **** 0.06
2348 H 72.49660606817488 59.203348739145554 122.50089912973917 H 0.0 **** 0.06
2349 H 72.18835030528766 57.47891098106655 122.1795569352033 H 0.0 **** 0.06
2350 H 71.62315652438224 58.71363143586794 121.02859114946597 H 0.0 **** 0.06
2351 C 26.24075066578255 51.631986536998284 3.350463740231671 C 0.0 **** -0.24
2352 H 26.104116352992712 52.673691057732924 3.641741689520714 H 0.0 **** 0.06
2353 H 26.302461974137266 51.56536499535973 2.2638403519678185 H 0.0 **** 0.06
2354 H 25.395864166157928 51.042271611893185 3.7039606993220673 H 0.0 **** 0.06
2355 H 27.161628255487628 51.25012835993056 3.7915769610538703 H 0.0 **** 0.06
2356 C 134.7694195647485 116.11654999152091 22.51479959519071 C 0.0 **** -0.24
2357 H 134.67794557720006 117.17918331484108 22.741424901211076 H 0.0 **** 0.06
2358 H 134.93287818531826 115.98765928928427 21.44447554789815 H 0.0 **** 0.06
2359 H 133.8540659016565 115.60255137588626 22.807219040581913 H 0.0 **** 0.06
2360 H 135.61271904541843 115.69943500677343 23.065037841695357 H 0.0 **** 0.06
2361 C 2.514271280670357 51.36789599125848 6.039307358626388 C 0.0 **** -0.24
2362 H 1.7100521085222908 50.705432550743126 6.360023421073095 H 0.0 **** 0.06
2363 H 3.474937712830183 50.88084763214704 6.208055649348125 H 0.0 **** 0.06
2364 H 2.470939096199203 52.295019062473244 6.610928910296764 H 0.0 **** 0.06
2365 H 2.3997864930189508 51.59057153976721 4.978425697903646 H 0.0 **** 0.06
2366 C 53.79640421530301 49.94878348377581 121.65420568801751 C 0.0 **** -0.24
2367 H 53.331845029006004 49.70895601495255 122.61034405827847 H 0.0 **** 0.06
2368 H 53.0224319190672 50.06842618948261 120.89460469194667 H 0.0 **** 0.06
2369 H 54.46806809419853 49.141977308326105 121.3634077809663 H 0.0 **** 0.06
2370 H 54.36077308206691 50.877018336568426 121.74736648975154 H 0.0 **** 0.06
2371 C 103.65827523013479 51.588207627978875 48.652062537662346 C 0.0 **** -0.24
2372 H 104.01115062179429 50.76795712346987 49.27834458056708 H 0.0 **** 0.06
2373 H 103.25054554255831 51.186705011822056 47.723732711659096 H 0.0 **** 0.06
2374 H 104.48951085503013 52.255308079438024 48.42575004735227 H 0.0 **** 0.06
2375 H 102.8818695643791 52.141046688749114 49.18173065811578 H 0.0 **** 0.06
2376 C 27.825846961468102 100.4755907435046 103.30662239971221 C 0.0 **** -0.24
2377 H 27.317699136738923 101.42129803262986 103.11694215734543 H 0.0 **** 0.06
2378 H 28.199611556060603 100.06985765729695 102.36601791501585 H 0.0 **** 0.06
2379 H 27.124686835231046 99.77121603964008 103.75389614456124 H 0.0 **** 0.06
2380 H 28.659428405619792 100.64184750153578 103.98832738529954 H 0.0 **** 0.06
2381 C 20.038080463355875 31.605594208976548 80.95203479600286 C 0.0 **** -0.24
2382 H 19.5946842388829 30.618084841425677 80.82939288084958 H 0.0 **** 0.06
2383 H 19.256145590790354 32.36332544825567 80.90893891393347 H 0.0 **** 0.06
2384 H 20.759052061505265 31.78227012204041 80.15270900307732 H 0.0 **** 0.06
2385 H 20.544205005397323 31.659412696401738 81.9155583034065 H 0.0 **** 0.06
2386 C 72.34232844037349 32.41629323978054 41.59146836088115 C 0.0 **** -0.24
2387 H 71.65307738011312 33.08504762018819 42.10714231006715 H 0.0 **** 0.06
2388 H 73.34515339852379 32.541637416755435 42.00031065548833 H 0.0 **** 0.06
2389 H 72.35020803645878 32.653338831975276 40.52761669931376 H 0.0 **** 0.06
2390 H 72.01949433787935 31.384967973940064 41.731051184616234 H 0.0 **** 0.06
2391 C 34.63513889419983 20.1032071412003 34.827324190869064 C 0.0 **** -0.24
2392 H 33.68396805483337 19.987618146734235 34.306249963731545 H 0.0 **** 0.06
2393 H 35.398870140473235 20.427269011201872 34.120780829115034 H 0.0 **** 0.06
2394 H 34.926891811974116 19.148297139505758 35.26599405056737 H 0.0 **** 0.06
2395 H 34.52800002489033 20.847980750044428 35.615772402785524 H 0.0 **** 0.06
2396 C 86.10840190729957 70.2485920594599 107.82690561528194 C 0.0 **** -0.24
2397 H 85.78741518268833 70.21653550264216 108.86887732252417 H 0.0 **** 0.06
2398 H 85.54522149532582 71.01776752704399 107.29813250754749 H 0.0 **** 0.06
2399 H 85.92700593074056 69.28011514858088 107.36100323705361 H 0.0 **** 0.06
2400 H 87.17192468296003 70.4802527944068 107.7817878778087 H 0.0 **** 0.06
2401 C 105.19942971602615 10.860174922649946 74.062747525569 C 0.0 **** -0.24
2402 H 105.14721383415736 11.232666285032963 75.08624583589454 H 0.0 **** 0.06
2403 H 104.56088854802357 11.468818849895854 73.4222462973525 H 0.0 **** 0.06
2404 H 104.86085628788885 9.824390067125591 74.03576913306841 H 0.0 **** 0.06
2405 H 106.22863503146132 10.915428611620882 73.70834732558964 H 0.0 **** 0.06
2406 C 29.27225484451401 121.01905707738084 79.99506584216262 C 0.0 **** -0.24
2407 H 28.45123565531253 120.32825930336972 80.18413444906358 H 0.0 **** 0.06
2408 H 29.347073611851414 121.72945306733294 80.81857769188925 H 0.0 **** 0.06
2409 H 29.08544362189474 121.55831524512882 79.06579176495744 H 0.0 **** 0.06
2410 H 30.204091201366907 120.46065950665442 79.909659827598 H 0.0 **** 0.06
2411 C 22.657791368886144 82.9870663959524 102.99531399773794 C 0.0 **** -0.24
2412 H 21.80087163402031 83.12816767730436 103.65395810120513 H 0.0 **** 0.06
2413 H 23.16137223721541 82.0539857474463 103.24962269112163 H 0.0 **** 0.06
2414 H 23.350135910504456 83.82014813347975 103.1177146820616 H 0.0 **** 0.06
2415 H 22.317380026574 82.94600708180312 101.96010997723299 H 0.0 **** 0.06
2416 C 79.78210158479783 135.90475593941375 56.46886199650035 C 0.0 **** -0.24
2417 H 79.68987973538401 135.32320944911618 57.386371610373445 H 0.0 **** 0.06
2418 H 80.6596942575157 136.54863598553072 56.533651563910155 H 0.0 **** 0.06
2419 H 78.89036460871353 136.51763828504585 56.33593541652289 H 0.0 **** 0.06
2420 H 79.88838586331099 135.2291642427761 55.620412499159116 H 0.0 **** 0.06
2421 C 46.479808779218416 75.36865654747828 127.83205987929662 C 0.0 **** -0.24
2422 H 46.039085281682674 76.35560321415983 127.97623748981721 H 0.0 **** 0.06
2423 H 45.697755188706054 74.65640270313492 127.56855709758145 H 0.0 **** 0.06
2424 H 46.965112517308015 75.0499521650944 128.75487074111774 H 0.0 **** 0.06
2425 H 47.21707809527638 75.41358135411627 127.03060509550238 H 0.0 **** 0.06
2426 C 122.56713410467239 11.038547173101211 79.68965487717492 C 0.0 **** -0.24
2427 H 123.53629604276162 10.573492984954548 79.86735618987797 H 0.0 **** 0.06
2428 H 121.81960020040049 10.57713641888218 80.33612785471473 H 0.0 **** 0.06
2429 H 122.28154496218657 10.897613279270843 78.64734324967878 H 0.0 **** 0.06
2430 H 122.62905703966456 12.104136684396707 79.90904625134408 H 0.0 **** 0.06
2431 C 7.517900789532614 89.2629367693516 55.98437955267667 C 0.0 **** -0.24
2432 H 7.063438380979768 89.46749200662336 56.95301935584537 H 0.0 **** 0.06
2433 H 8.001208058119676 90.1654085008203 55.61088806190779 H 0.0 **** 0.06
2434 H 6.746237035219881 88.94603965630502 55.28106493968528 H 0.0 **** 0.06
2435 H 8.258310780336942 88.47025452970243 56.0912484832177 H 0.0 **** 0.06
2436 C 89.33820242004495 49.618179072226496 73.38425829456821 C 0.0 **** -0.24
2437 H 90.00270736763528 48.902063842382944 72.90238679315225 H 0.0 **** 0.06
2438 H 88.42361088729426 49.71602955267963 72.79911584235866 H 0.0 **** 0.06
2439 H 89.83339311483705 50.587800363330814 73.44914171600402 H 0.0 **** 0.06
2440 H 89.09268120168504 49.26783255079482 74.3872865862088 H 0.0 **** 0.06
2441 C 126.81450288065486 5.19697762903732 61.67863046926601 C 0.0 **** -0.24
2442 H 126.12650723378809 5.794381361292864 62.2767983631382 H 0.0 **** 0.06
2443 H 127.80773411997363 5.229084712154247 62.12841817831054 H 0.0 **** 0.06
2444 H 126.86066919578582 5.60014290633859 60.66749870529526 H 0.0 **** 0.06
2445 H 126.46492456489543 4.165511293811335 61.643598660049406 H 0.0 **** 0.06
2446 C 78.38030081205605 117.88890760221591 41.50376135215129 C 0.0 **** -0.24
2447 H 77.46561922225737 117.89691951676525 42.09676596625104 H 0.0 **** 0.06
2448 H 78.9602486214359 118.78655265189678 41.71933033642017 H 0.0 **** 0.06
2449 H 78.12593559089223 117.86591500498264 40.443666177335245 H 0.0 **** 0.06
2450 H 78.9680305736047 117.00650611779372 41.75551992474735 H 0.0 **** 0.06
2451 C 8.975982826916777 36.5792908226245 60.709784957059654 C 0.0 **** -0.24
2452 H 8.924822067996843 37.16920572247335 61.62500900420088 H 0.0 **** 0.06
2453 H 8.305352259215027 35.723236675667124 60.79113636448085 H 0.0 **** 0.06
2454 H 9.997573732612494 36.22814243020423 60.56037965562864 H 0.0 **** 0.06
2455 H 8.677117484527486 37.19632872552188 59.86286951902183 H 0.0 **** 0.06
2456 C 30.89810981358957 128.1827008408426 105.38257848800146 C 0.0 **** -0.24
2457 H 31.62217353622023 128.00615626541727 106.17735440238341 H 0.0 **** 0.06
2458 H 29.889387672752548 128.1214085171148 105.79031851413511 H 0.0 **** 0.06
2459 H 31.022552223515817 127.42959889261834 104.60450933866454 H 0.0 **** 0.06
2460 H 31.06050196038018 129.17415192458745 104.95817930796268 H 0.0 **** 0.06
2461 C 118.5562342840212 93.24664358407134 22.422586284705943 C 0.0 **** -0.24
2462 H 118.38222965271726 92.17160470513448 22.36808950984978 H 0.0 **** 0.06
2463 H 119.61816926200753 93.4347328239583 22.585192152077497 H 0.0 **** 0.06
2464 H 117.98183406540818 93.66512041580906 23.250116751634977 H 0.0 **** 0.06
2465 H 118.24206572966725 93.71352829689533 21.489410621544494 H 0.0 **** 0.06
2466 C 65.21714079997571 117.89997254479488 123.67762159905013 C 0.0 **** -0.24
2467 H 64.15975598455819 117.88247609830626 123.94279949306643 H 0.0 **** 0.06
2468 H 65.6299029985018 116.89481910326342 123.76351681103694 H 0.0 **** 0.06
2469 H 65.74957281270248 118.57088146064189 124.35099103001806 H 0.0 **** 0.06
2470 H 65.32698150508645 118.25160724704213 122.65160837690618 H 0.0 **** 0.06
2471 C 55.24927580150849 89.20992602583854 96.55892212787344 C 0.0 **** -0.24
2472 H 54.256229667651766 89.6303818842015 96.71992008879299 H 0.0 **** 0.06
2473 H 55.988984346200056 89.81656480216994 97.08169621191021 H 0.0 **** 0.06
2474 H 55.47135836230578 89.20243910477731 95.49214974794828 H 0.0 **** 0.06
2475 H 55.278197061192856 88.19027404558983 96.94351994053224 H 0.0 **** 0.06
2476 C 50.04584786101434 45.79931093349185 1.0427938012420235 C 0.0 **** -0.24
2477 H 50.733903914986485 45.00516175793257 0.7535361311316535 H 0.0 **** 0.06
2478 H 49.04413560873229 45.559435407051595 0.6866065681845441 H 0.0 **** 0.06
2479 H 50.373361354432674 46.74097174880592 0.6027632797041065 H 0.0 **** 0.06
2480 H 50.03399989390235 45.89102198781029 2.1290017849118144 H 0.0 **** 0.06
2481 C 10.10579646374697 66.8693346288049 136.29606772367862 C 0.0 **** -0.24
2482 H 10.422010148018032 66.39402994766559 135.36769096110226 H 0.0 **** 0.06
2483 H 9.828854603271168 66.10253725839048 137.02077879915868 H 0.0 **** 0.06
2484 H 9.247516643534581 67.51263723422448 136.101857594051 H 0.0 **** 0.06
2485 H 10.925346325940808 67.46739917140773 136.69435139408455 H 0.0 **** 0.06
2486 C 121.98185849614927 84.70576171894999 66.91555992059293 C 0.0 **** -0.24
2487 H 122.93174463075977 84.32479479363332 66.53905408438779 H 0.0 **** 0.06
2488 H 121.900303437187 85.76834544328653 66.68423824859117 H 0.0 **** 0.06
2489 H 121.93554467719721 84.56277191249242 67.99533305683326 H 0.0 **** 0.06
2490 H 121.16153679029341 84.1662036129186 66.44211149079779 H 0.0 **** 0.06
2491 C 64.85022669399717 116.94345870167257 46.70151338937876 C 0.0 **** -0.24
2492 H 65.46312241583797 116.50598965789791 45.91296487126856 H 0.0 **** 0.06
2493 H 63.801603120989284 116.91136756937081 46.405169265377864 H 0.0 **** 0.06
2494 H 65.151012252324 117.97899770003733 46.86276823640955 H 0.0 **** 0.06
2495 H 64.98577408581889 116.37722544968014 47.622791227080626 H 0.0 **** 0.06
2496 C 41.584595097155216 28.296162554822985 92.60149314704762 C 0.0 **** -0.24
2497 H 41.79357637637597 28.780368051577646 91.64804892679524 H 0.0 **** 0.06
2498 H 41.93940745166205 28.92879184571118 93.41582507466893 H 0.0 **** 0.06
2499 H 42.094008213987564 27.333362039061804 92.63914279383658 H 0.0 **** 0.06
2500 H 40.50967145826536 28.143130870889216 92.70273831356644 H 0.0 **** 0.06
2501 C 71.60420642558194 7.602616298983321 11.636735496775515 C 0.0 **** -0.24
2502 H 72.07553806352158 7.072692273232974 12.464836399243666 H 0.0 **** 0.06
2503 H 70.52049830804069 7.5188601644324535 11.72276875740971 H 0.0 **** 0.06
2504 H 71.92875886574751 7.1641209437092925 10.693136220748414 H 0.0 **** 0.06
2505 H 71.89107043049614 8.652856064658067 11.666776316025476 H 0.0 **** 0.06
2506 C 128.81517196278853 85.18197686961616 97.96778992869741 C 0.0 **** -0.24
2507 H 128.95438822369218 86.05661650289954 98.60361414318335 H 0.0 **** 0.06
2508 H 129.21528130135187 85.38787006428038 96.97487020193635 H 0.0 **** 0.06
2509 H 127.75165306433159 84.95422252006762 97.8919242682622 H 0.0 **** 0.06
2510 H 129.339257861161 84.33149478215574 98.40267865708348 H 0.0 **** 0.06
2511 C 47.45901995329888 134.3770146150193 30.882764294340063 C 0.0 **** -0.24
2512 H 46.984694549311484 133.79480891325386 30.092769363392968 H 0.0 **** 0.06
2513 H 47.33516856244731 135.43984217859986 30.674650210463795 H 0.0 **** 0.06
2514 H 48.52079596762235 134.13562239306378 30.92342772850138 H 0.0 **** 0.06
2515 H 46.99463864033754 134.1370668001235 31.839275719177962 H 0.0 **** 0.06
2516 C 45.678301906234296 115.45676214633909 120.39017474843217 C 0.0 **** -0.24
2517 H 46.565801995352444 115.72011034733191 120.96519505942649 H 0.0 **** 0.06
2518 H 44.817889119768594 115.39566901447449 121.0569352388583 H 0.0 **** 0.06
2519 H 45.831959269817915 114.49267603367903 119.90498152756602 H 0.0 **** 0.06
2520 H 45.49660853627401 116.22019437460884 119.63234765167728 H 0.0 **** 0.06
2521 C 117.86716031034604 130.14352643822977 17.575156564390767 C 0.0 **** -0.24
2522 H 117.1465224557976 129.3773680372636 17.289479402135115 H 0.0 **** 0.06
2523 H 118.66796060346707 130.18244385979847 16.836163043460992 H 0.0 **** 0.06
2524 H 118.28556027919058 129.9023588672813 18.552609762926686 H 0.0 **** 0.06
2525 H 117.36785648915668 131.11126467806693 17.622341865402042 H 0.0 **** 0.06
2526 C 90.84244521486343 108.7360804065395 33.6512415771858 C 0.0 **** -0.24
2527 H 90.2881488080382 107.85901792984176 33.31863983175168 H 0.0 **** 0.06
2528 H 91.40362551899833 109.1502372475923 32.81319630990926 H 0.0 **** 0.06
2529 H 91.53227754499879 108.45062004198437 34.445162088441336 H 0.0 **** 0.06
2530 H 90.14490420804454 109.48429646185727 34.02742282469717 H 0.0 **** 0.06
2531 C 133.70980024265887 8.79120135212877 2.8876361512506 C 0.0 **** -0.24
2532 H 133.7272431500183 9.214751997105221 1.8842147112716354 H 0.0 **** 0.06
2533 H 133.27724376938173 7.790979830611711 2.8524523644697766 H 0.0 **** 0.06
2534 H 133.1075132920085 9.425040537747854 3.538984297783376 H 0.0 **** 0.06
2535 H 134.72720075922678 8.73403304305031 3.274893231477556 H 0.0 **** 0.06
2536 C 71.03834488167816 111.69040150718502 31.949463897687735 C 0.0 **** -0.24
2537 H 72.10546967007329 111.57968904738371 31.757444396166505 H 0.0 **** 0.06
2538 H 70.60397080641474 112.36000246475521 31.206043520525952 H 0.0 **** 0.06
2539 H 70.8900827827126 112.10714509756221 32.94559952316811 H 0.0 **** 0.06
2540 H 70.55529573723118 110.71513846711684 31.887097234322198 H 0.0 **** 0.06
2541 C 103.89693219259067 111.77795665381436 77.98003122116184 C 0.0 **** -0.24
2542 H 102.88071889581056 111.7719404967037 78.37592952390798 H 0.0 **** 0.06
2543 H 104.33403250562694 112.76662332588012 78.11640403378902 H 0.0 **** 0.06
2544 H 103.87341855101027 111.53275933682426 76.91784598130364 H 0.0 **** 0.06
2545 H 104.49719874085366 111.03811692635949 78.51080270753928 H 0.0 **** 0.06
2546 C 118.78145138762173 121.98587463025794 44.94967345397998 C 0.0 **** -0.24
2547 H 119.27269274632332 122.94951708678727 45.08456676807012 H 0.0 **** 0.06
2548 H 118.16099798293851 122.01763121585762 44.053610291751426 H 0.0 **** 0.06
2549 H 118.15645839109735 121.77227204005416 45.81684457632201 H 0.0 **** 0.06
2550 H 119.53480937573269 121.20574635870001 44.842965173057706 H 0.0 **** 0.06
2551 C 29.666905146959323 125.30077101107372 109.06724663093578 C 0.0 **** -0.24
2552 H 30.36546058370402 125.42481988869395 108.23933040779521 H 0.0 **** 0.06
2553 H 30.21208848659768 125.33993690724941 110.01118587599277 H 0.0 **** 0.06
2554 H 29.165388276031535 124.33683858345063 108.97674137774314 H 0.0 **** 0.06
2555 H 28.92655052280304 126.09999415071303 109.04119974410408 H 0.0 **** 0.06
2556 C 101.04904444482968 120.35484032939836 36.97082786431785 C 0.0 **** -0.24
2557 H 101.06930259423983 120.97244087830822 37.86895215870144 H 0.0 **** 0.06
2558 H 101.12553828823768 119.30370833828566 37.25195126756495 H 0.0 **** 0.06
2559 H 101.88724853767097 120.62086642414728 36.327956174376155 H 0.0 **** 0.06
2560 H 100.11401798019276 120.52100458448203 36.43694121173153 H 0.0 **** 0.06
2561 C 24.09931557668773 49.508015163679204 126.31579496235483 C 0.0 **** -0.24
2562 H 23.61390755223664 48.81504269783365 125.62824329564964 H 0.0 **** 0.06
2563 H 23.60518984717396 49.460678301285256 127.28692786341114 H 0.0 **** 0.06
2564 H 24.029224416129466 50.52022224240548 125.92055704794848 H 0.0 **** 0.06
2565 H 25.14839869475992 49.233172689760664 126.4276399974847 H 0.0 **** 0.06
2566 C 29.825687906230485 79.09423329084359 128.00798472327844 C 0.0 **** -0.24
2567 H 29.57379950084845 78.27862187478127 127.33011429718198 H 0.0 **** 0.06
2568 H 30.15391412317709 79.95893205865332 127.43033716624697 H 0.0 **** 0.06
2569 H 30.62711434606598 78.77659090556403 128.67579089787023 H 0.0 **** 0.06
2570 H 28.947618678840485 79.36191788973383 128.5967686446223 H 0.0 **** 0.06
2571 C 133.13301523685686 14.705851761602275 32.734754437853375 C 0.0 **** -0.24
2572 H 132.69404630446175 13.850781127452478 33.248241069916794 H 0.0 **** 0.06
2573 H 133.1364337051802 14.521944643273969 31.660301295030337 H 0.0 **** 0.06
2574 H 134.15573180266762 14.852701586805836 33.081784709389034 H 0.0 **** 0.06
2575 H 132.54489677968576 15.59828357023838 32.94871753961322 H 0.0 **** 0.06
2576 C 45.50388018117269 102.35939090342266 16.0000823310981 C 0.0 **** -0.24
2577 H 46.4465526987383 102.25875316328631 15.462084527843416 H 0.0 **** 0.06
2578 H 44.763323151785585 101.68802436547064 15.56492334958159 H 0.0 **** 0.06
2579 H 45.15167328793158 103.3881821457094 15.924300072576159 H 0.0 **** 0.06
2580 H 45.65579569239698 102.10422925817353 17.04884458891746 H 0.0 **** 0.06
2581 C 86.62303029784488 91.36181566856312 52.48062559033815 C 0.0 **** -0.24
2582 H 87.66657688982303 91.07654374760708 52.613747725260154 H 0.0 **** 0.06
2583 H 86.3205736119694 92.02278534035628 53.2947756082084 H 0.0 **** 0.06
2584 H 85.9982368476625 90.46885021732876 52.48551377260837 H 0.0 **** 0.06
2585 H 86.5074565633559 91.88100492264417 51.529351560474765 H 0.0 **** 0.06
2586 C 69.30941284184337 111.26229733239569 98.8759244381357 C 0.0 **** -0.24
2587 H 70.34285424065757 111.47955926016425 99.14066404890393 H 0.0 **** 0.06
2588 H 68.65440176762837 111.54865938763305 99.69994774995043 H 0.0 **** 0.06
2589 H 69.2011214440216 110.19520408935426 98.68034818258053 H 0.0 **** 0.06
2590 H 69.0365055696497 111.82463102542516 97.9829549538671 H 0.0 **** 0.06
2591 C 127.08989597490492 67.37771627021345 110.80198665306563 C 0.0 **** -0.24
2592 H 127.38470794259418 68.42577566729886 110.74504380360409 H 0.0 **** 0.06
2593 H 126.00687436692486 67.29932748230271 110.70563589514191 H 0.0 **** 0.06
2594 H 127.40123848274476 66.9649585486286 111.76184757667104 H 0.0 **** 0.06
2595 H 127.56765074302069 66.82126271270386 109.99538520255268 H 0.0 **** 0.06
2596 C 97.57729263972405 14.723938890447357 87.30300772158142 C 0.0 **** -0.24
2597 H 96.52192829937204 14.95469462335626 87.4506085221278 H 0.0 **** 0.06
2598 H 97.95812631163551 15.296191244434624 86.4568434124676 H 0.0 **** 0.06
2599 H 97.6910174945292 13.658567866118744 87.1024078617011 H 0.0 **** 0.06
2600 H 98.13571884030392 14.986853259284032 88.20074499890848 H 0.0 **** 0.06
2601 C 64.88096244755411 28.315044501502484 133.35322219853686 C 0.0 **** -0.24
2602 H 65.27660102026312 27.533841358566974 134.0023252974235 H 0.0 **** 0.06
2603 H 65.70142423274689 28.785650051701964 132.80976748693095 H 0.0 **** 0.06
2604 H 64.36864578563063 29.06388699040508 133.95661476572087 H 0.0 **** 0.06
2605 H 64.17990961896629 27.877190131908264 132.64300214720953 H 0.0 **** 0.06
2606 C 14.435340541515757 100.51324868747099 86.25871165216603 C 0.0 **** -0.24
2607 H 13.439027311920086 100.32987323594466 85.8553476796501 H 0.0 **** 0.06
2608 H 15.18456471677348 100.21160070962571 85.52561495233826 H 0.0 **** 0.06
2609 H 14.569064135799522 99.93601469034391 87.1729413382275 H 0.0 **** 0.06
2610 H 14.549157400098352 101.5740790528256 86.47854261623343 H 0.0 **** 0.06
2611 C 5.319609614110853 119.3633541189191 122.93982769726125 C 0.0 **** -0.24
2612 H 6.279563549979997 118.89892629384862 123.16445244590369 H 0.0 **** 0.06
2613 H 5.486113944548222 120.30992679706304 122.42403354070694 H 0.0 **** 0.06
2614 H 4.778235751008012 119.54531996394367 123.86804524651006 H 0.0 **** 0.06
2615 H 4.735253237462086 118.69946296342401 122.30213007557262 H 0.0 **** 0.06
2616 C 21.760681150627192 100.8572365110775 84.40282680808835 C 0.0 **** -0.24
2617 H 21.544261077893054 100.15022176882336 85.20347751334259 H 0.0 **** 0.06
2618 H 22.72645864677878 101.32876299324329 84.58658670622029 H 0.0 **** 0.06
2619 H 20.983248983303668 101.62003105475605 84.37258233706267 H 0.0 **** 0.06
2620 H 21.789199691152817 100.32893122442796 83.45061138564493 H 0.0 **** 0.06
2621 C 33.10303603969197 85.12931987118594 8.626355354719749 C 0.0 **** -0.24
2622 H 33.06805651466976 84.71954051918578 7.616470500185301 H 0.0 **** 0.06
2623 H 32.28776866612543 85.83988012928228 8.75782486677906 H 0.0 **** 0.06
2624 H 34.05577912245354 85.6368947631957 8.77936005945702 H 0.0 **** 0.06
2625 H 33.0019360053073 84.32072285934086 9.350036017477237 H 0.0 **** 0.06
2626 C 112.52348060313207 121.25468719325649 30.870542093776095 C 0.0 **** -0.24
2627 H 113.40208927767017 120.76349398810243 31.287935269849868 H 0.0 **** 0.06
2628 H 112.83380678791903 122.12197421716625 30.28757815846842 H 0.0 **** 0.06
2629 H 111.86821839382287 121.57649548840533 31.680466137942204 H 0.0 **** 0.06
2630 H 111.98882334315527 120.55668487687035 30.22633215818513 H 0.0 **** 0.06
2631 C 42.93277882793808 41.21493707223348 96.30435538800444 C 0.0 **** -0.24
2632 H 41.86074768759803 41.231912627858826 96.50157136561495 H 0.0 **** 0.06
2633 H 43.160786537234635 40.41110278789754 95.60445540601211 H 0.0 **** 0.06
2634 H 43.470584254589944 41.04801868140454 97.23846015051791 H 0.0 **** 0.06
2635 H 43.23806192720716 42.16928298760837 95.87460872936083 H 0.0 **** 0.06
2636 C 6.922637334799106 85.38259944870379 54.26774313233972 C 0.0 **** -0.24
2637 H 6.9348780627613 85.7048739077091 55.30910878173961 H 0.0 **** 0.06
2638 H 7.775990371999228 84.7310586949672 54.07919258302775 H 0.0 **** 0.06
2639 H 6.979965645559787 86.2554826353605 53.61704082459275 H 0.0 **** 0.06
2640 H 5.998535379580062 84.83979359902995 54.066605139646185 H 0.0 **** 0.06
2641 C 86.15195401270111 22.474204133756032 122.54022011426441 C 0.0 **** -0.24
2642 H 85.77767853109427 21.767094583059652 123.27932425328937 H 0.0 **** 0.06
2643 H 87.2204194424666 22.314997617465238 122.39306034920791 H 0.0 **** 0.06
2644 H 85.980786641024 23.491856638074545 122.89312270119949 H 0.0 **** 0.06
2645 H 85.62757523444574 22.324527455479412 121.59601045106345 H 0.0 **** 0.06
2646 C 40.007575555419564 83.14017537365766 128.7092014477528 C 0.0 **** -0.24
2647 H 39.6697908601501 83.38051451165899 129.71740513305824 H 0.0 **** 0.06
2648 H 41.02805540373696 82.75915081739879 128.74916682076852 H 0.0 **** 0.06
2649 H 39.978371867020726 84.03913159304614 128.0934377562283 H 0.0 **** 0.06
2650 H 39.35255965451023 82.38315068071952 128.2778560527451 H 0.0 **** 0.06
2651 C 66.67893127526062 55.672454662050995 54.31999085256558 C 0.0 **** -0.24
2652 H 66.13962268074829 56.38044920351513 54.94821053487465 H 0.0 **** 0.06
2653 H 67.28537908401 55.01858314689059 54.947261281387966 H 0.0 **** 0.06
2654 H 67.32533440455012 56.216769431213066 53.63178341886339 H 0.0 **** 0.06
2655 H 65.96670285678466 55.073498019036435 53.75264116114113 H 0.0 **** 0.06
2656 C 93.78488307542679 102.88411667295698 101.28510050328674 C 0.0 **** -0.24
2657 H 94.67804367100194 102.46203080099434 100.82385463179611 H 0.0 **** 0.06
2658 H 94.05106901490407 103.34160660263805 102.23828207032213 H 0.0 **** 0.06
2659 H 93.05508684638076 102.09285124526431 101.45300670610882 H 0.0 **** 0.06
2660 H 93.35826302606563 103.63934679590128 100.6253832656527 H 0.0 **** 0.06
2661 C 69.75870278724132 14.47583846096282 59.35872387253585 C 0.0 **** -0.24
2662 H 70.01343310613596 15.207993556831994 60.12516333810942 H 0.0 **** 0.06
2663 H 69.20914943072638 13.65128963341428 59.812827826571265 H 0.0 **** 0.06
2664 H 70.67191288948226 14.096215851769031 58.900588479091425 H 0.0 **** 0.06
2665 H 69.13979452282734 14.949157164639246 58.59613613939504 H 0.0 **** 0.06
2666 C 72.80416159723612 3.9454006417155654 87.2089570993294 C 0.0 **** -0.24
2667 H 72.59979983423173 2.8906876580237224 87.02363340028269 H 0.0 **** 0.06
2668 H 72.00574309229252 4.550842933569697 86.7778287338213 H 0.0 **** 0.06
2669 H 73.75467670791134 4.21658800131334 86.74984982618597 H 0.0 **** 0.06
2670 H 72.8554382970177 4.122855790486028 88.2832403193383 H 0.0 **** 0.06
2671 C 58.895948731222774 65.97972429923675 96.25277511420187 C 0.0 **** -0.24
2672 H 59.505323587279904 66.69154922134828 95.69509091095027 H 0.0 **** 0.06
2673 H 59.54309455191776 65.34068768187262 96.85349597031217 H 0.0 **** 0.06
2674 H 58.32517451629474 65.3666524192289 95.555773179324 H 0.0 **** 0.06
2675 H 58.21136195284137 66.52170669629726 96.90586325852536 H 0.0 **** 0.06
2676 C 88.61714283670187 92.89133360257833 75.71691698947255 C 0.0 **** -0.24
2677 H 89.37886821601808 93.27176661687933 76.39716268833847 H 0.0 **** 0.06
2678 H 88.49176005333948 93.58772308111115 74.88705858515364 H 0.0 **** 0.06
2679 H 87.67287735057164 92.78755431817069 76.2506384289116 H 0.0 **** 0.06
2680 H 88.92589568475472 91.91866561830314 75.33172637312133 H 0.0 **** 0.06
2681 C 25.636126873628655 44.05158240011389 64.01195870103375 C 0.0 **** -0.24
2682 H 24.60105453589108 43.91845802735594 64.32535809865983 H 0.0 **** 0.06
2683 H 25.66105654557549 44.565845893146275 63.05058380540953 H 0.0 **** 0.06
2684 H 26.115029692936616 43.07706895165876 63.91600195923742 H 0.0 **** 0.06
2685 H 26.166923712827497 44.64531271642659 64.75671377941696 H 0.0 **** 0.06
2686 C 99.09864964372184 47.50242357182853 80.00490002596297 C 0.0 **** -0.24
2687 H 99.92618427900152 47.266077500847985 79.3363770267141 H 0.0 **** 0.06
2688 H 98.2491882938159 46.859813798919106 79.77233351812089 H 0.0 **** 0.06
2689 H 98.81190838894474 48.54565086539148 79.87405542994944 H 0.0 **** 0.06
2690 H 99.40668465756195 47.3372975123026 81.03776638544144 H 0.0 **** 0.06
2691 C 47.10963626993686 126.69929236038226 96.97556408123435 C 0.0 **** -0.24
2692 H 48.17875934440066 126.596464858133 96.79269153260479 H 0.0 **** 0.06
2693 H 46.61168267462908 127.005507152381 96.05467871566277 H 0.0 **** 0.06
2694 H 46.942607158176855 127.45155167940158 97.74599008008587 H 0.0 **** 0.06
2695 H 46.70422274745003 125.74287274462813 97.30695130781866 H 0.0 **** 0.06
2696 C 0.4199103440347969 17.183687016014062 53.955485929115525 C 0.0 **** -0.24
2697 H -0.2879814134571177 18.005175571086568 54.067833146968326 H 0.0 **** 0.06
2698 H 0.8269446296903844 16.918775776371774 54.931775450045194 H 0.0 **** 0.06
2699 H 1.2306262830711674 17.491212285514564 53.294706878841794 H 0.0 **** 0.06
2700 H -0.09006143089443697 16.32125678709781 53.52806473317034 H 0.0 **** 0.06
2701 C 30.760953833267124 99.68480175145474 135.09048329119798 C 0.0 **** -0.24
2702 H 31.27959342397105 99.8812086266304 136.02912827202886 H 0.0 **** 0.06
2703 H 31.211767395093545 100.2786277129393 134.29514252339595 H 0.0 **** 0.06
2704 H 29.70982414547268 99.95295363965971 135.1931379050224 H 0.0 **** 0.06
2705 H 30.843961884459702 98.62606747964274 134.84484846273648 H 0.0 **** 0.06
2706 C 97.15281739368658 6.621027350986466 91.13240964616898 C 0.0 **** -0.24
2707 H 98.10780278261677 7.053126786496971 90.8339451892562 H 0.0 **** 0.06
2708 H 96.85278114172715 5.865504425988874 90.40491290309099 H 0.0 **** 0.06
2709 H 96.39688156562174 7.404926421495944 91.17450851455872 H 0.0 **** 0.06
2710 H 97.25319920026072 6.160103310954781 92.11561391578141 H 0.0 **** 0.06
2711 C 44.62298275147987 70.77624759375303 7.765570220696418 C 0.0 **** -0.24
2712 H 44.6193333750233 71.53334090809426 6.981193733675383 H 0.0 **** 0.06
2713 H 43.92068857070217 71.06259429587556 8.549522126100243 H 0.0 **** 0.06
2714 H 45.62471250804521 70.69463051941796 8.186076054642058 H 0.0 **** 0.06
2715 H 44.32564638921713 69.81589661039803 7.343384033838362 H 0.0 **** 0.06
2716 C 16.750215374581217 69.5084967664876 0.35225384569565676 C 0.0 **** -0.24
2717 H 17.068758526408317 69.88881040187877 -0.6183974144742024 H 0.0 **** 0.06
2718 H 15.959389174503713 68.77132526273795 0.21242477130209636 H 0.0 **** 0.06
2719 H 16.37558190977893 70.33215412893828 0.9601143439182351 H 0.0 **** 0.06
2720 H 17.5974278889459 69.0427318292049 0.8557913792222394 H 0.0 **** 0.06
2721 C 116.57650458743322 136.4998922560154 33.995391873844994 C 0.0 **** -0.24
2722 H 116.30086808949324 135.4467387514112 34.052015971193896 H 0.0 **** 0.06
2723 H 116.04745586718468 136.97002878262398 33.16513452865411 H 0.0 **** 0.06
2724 H 117.65159210196134 136.5862683455875 33.83740745955265 H 0.0 **** 0.06
2725 H 116.30469430419359 136.99640023462894 34.92700878471365 H 0.0 **** 0.06
2726 C 34.96475404619653 29.423802204211654 49.92855401705373 C 0.0 **** -0.24
2727 H 36.05196274989771 29.43817370106953 49.85083809689701 H 0.0 **** 0.06
2728 H 34.673320234560435 29.536520561567954 50.97292080044849 H 0.0 **** 0.06
2729 H 34.58544008466856 28.476409324178263 49.54549825850552 H 0.0 **** 0.06
2730 H 34.54900644069494 30.244313535688576 49.3437556381474 H 0.0 **** 0.06
2731 C 87.37720458671666 112.79927125633444 3.4505191613846193 C 0.0 **** -0.24
2732 H 87.22638706823362 113.45316783440367 4.308478557410979 H 0.0 **** 0.06
2733 H 87.309568804479 111.75965805282851 3.77069230149084 H 0.0 **** 0.06
2734 H 88.36301428480957 112.98424174437645 3.0221334863286415 H 0.0 **** 0.06
2735 H 86.61208350097525 113.00019121539057 2.7017589339894528 H 0.0 **** 0.06
2736 C 36.55445286253001 9.649617447725824 100.79547238215969 C 0.0 **** -0.24
2737 H 36.506831924840384 9.289668093224055 101.82366001677914 H 0.0 **** 0.06
2738 H 36.78093948986893 10.716708793527157 100.79534501236427 H 0.0 **** 0.06
2739 H 35.59466993711544 9.48136880247943 100.30650897529219 H 0.0 **** 0.06
2740 H 37.33569283870398 9.112327694932656 100.25790017466034 H 0.0 **** 0.06
2741 C 46.8277484546866 7.285120270584297 136.57599776735594 C 0.0 **** -0.24
2742 H 45.761805002155256 7.503723738776959 136.6506985779024 H 0.0 **** 0.06
2743 H 47.08148894271763 7.070137154564673 135.53810756447882 H 0.0 **** 0.06
2744 H 47.06460501357799 6.420036891897663 137.195182528994 H 0.0 **** 0.06
2745 H 47.400222501012706 8.146167524340708 136.9192427255643 H 0.0 **** 0.06
2746 C 84.29000919677986 52.79482012439203 33.983056793148364 C 0.0 **** -0.24
2747 H 84.23714222702665 53.76613543984638 33.49136512249123 H 0.0 **** 0.06
2748 H 83.28521928676176 52.47346208875041 34.25969260371767 H 0.0 **** 0.06
2749 H 84.90560319689902 52.87357248315428 34.87805291915913 H 0.0 **** 0.06
2750 H 84.73018983998332 52.06733424605079 33.301396071584065 H 0.0 **** 0.06
2751 C 24.794189496627297 112.12045297986268 24.8080660112266 C 0.0 **** -0.24
2752 H 24.845155059969102 113.09775830405832 24.32696110928029 H 0.0 **** 0.06
2753 H 24.301716936921594 111.41247788867801 24.140875523388672 H 0.0 **** 0.06
2754 H 24.225326034911177 112.2017401547167 25.7352115759642 H 0.0 **** 0.06
2755 H 25.802573984386072 111.77207615783098 25.02940587344358 H 0.0 **** 0.06
2756 C 41.44603523478718 43.77999431620475 57.709571525901026 C 0.0 **** -0.24
2757 H 41.6723736550711 43.69146481800851 56.647373110539235 H 0.0 **** 0.06
2758 H 41.45117430972931 42.78938234908492 58.164623826917136 H 0.0 **** 0.06
2759 H 40.46250216441039 44.2323112500427 57.83507504404102 H 0.0 **** 0.06
2760 H 42.19829216509956 44.4047716383717 58.19033741128368 H 0.0 **** 0.06
2761 C 102.47962690147557 62.267224025901655 38.29037506227215 C 0.0 **** -0.24
2762 H 103.33709066802331 62.05636800461137 38.9295782362763 H 0.0 **** 0.06
2763 H 102.2939377921565 63.34184640268461 38.27519515006472 H 0.0 **** 0.06
2764 H 101.60128486498644 61.75272428823803 38.679307343134745 H 0.0 **** 0.06
2765 H 102.6865494016669 61.92002168629543 37.2786895285191 H 0.0 **** 0.06
2766 C 9.270701436598404 124.99311529482344 104.43026190790829 C 0.0 **** -0.24
2767 H 9.458741399953361 124.04447948526436 103.92872320057347 H 0.0 **** 0.06
2768 H 8.304631700909702 124.95128644915292 104.93402743726102 H 0.0 **** 0.06
2769 H 9.262852708658436 125.79797506242548 103.69552440705178 H 0.0 **** 0.06
2770 H 10.055090065234971 125.17733103736566 105.16369496962284 H 0.0 **** 0.06
2771 C 127.62272795295917 131.80907098030787 105.48587478615423 C 0.0 **** -0.24
2772 H 127.6942158868921 132.39925932516036 104.57245963471243 H 0.0 **** 0.06
2773 H 126.57536161172573 131.58287073870042 105.69019645080922 H 0.0 **** 0.06
2774 H 128.04140949739593 132.3740598793666 106.31823007926529 H 0.0 **** 0.06
2775 H 128.17705675853932 130.8788955075292 105.36203127595043 H 0.0 **** 0.06
2776 C 135.67022674029118 128.72446022139303 12.553882959684444 C 0.0 **** -0.24
2777 H 135.8347667574203 128.70956453210684 11.476309398563444 H 0.0 **** 0.06
2778 H 134.60379254185557 128.62813432665786 12.759020740867129 H 0.0 **** 0.06
2779 H 136.03590225737105 129.66567387657247 12.963557589641198 H 0.0 **** 0.06
2780 H 136.2052428054114 127.8950302979915 13.014585463662542 H 0.0 **** 0.06
2781 C 74.05125695807604 45.420503267662426 39.396591005161724 C 0.0 **** -0.24
2782 H 73.61735278474762 44.70177858784966 40.092831002360015 H 0.0 **** 0.06
2783 H 74.75592028361167 46.06113301759099 39.92743581596301 H 0.0 **** 0.06
2784 H 73.25805851007713 46.03081286522142 38.965001535643864 H 0.0 **** 0.06
2785 H 74.57152736184132 44.88658808659412 38.601731695254614 H 0.0 **** 0.06
2786 C 17.555432357717983 135.20093611225965 85.77711394467609 C 0.0 **** -0.24
2787 H 17.701502047400396 134.9257943282415 84.73332055800095 H 0.0 **** 0.06
2788 H 17.731557073749656 136.2705726588887 85.89889198463972 H 0.0 **** 0.06
2789 H 18.254026579107546 134.644113076653 86.40119347295483 H 0.0 **** 0.06
2790 H 16.533523951018715 134.9644888894459 86.07554657512954 H 0.0 **** 0.06
2791 C 122.7912704337483 124.62184851125855 132.65651710862346 C 0.0 **** -0.24
2792 H 122.42782987002526 123.85528265867399 131.97132015640028 H 0.0 **** 0.06
2793 H 122.90678802713857 124.19209816572044 133.65207094285535 H 0.0 **** 0.06
2794 H 122.07658747388584 125.44403639690951 132.6950841457695 H 0.0 **** 0.06
2795 H 123.75501836587446 124.99406860122853 132.30735920184998 H 0.0 **** 0.06
2796 C 44.99283003429514 133.92256597925027 1.5888127776603511 C 0.0 **** -0.24
2797 H 45.646903032558725 134.61381408036755 1.0576295483868208 H 0.0 **** 0.06
2798 H 45.515817280043905 132.97975074100813 1.7523513915545834 H 0.0 **** 0.06
2799 H 44.09649548041335 133.7426560597619 0.9946066808098202 H 0.0 **** 0.06
2800 H 44.71120425852217 134.35332972990912 2.5490260449786 H 0.0 **** 0.06
2801 C 134.59400171902973 46.76185119146689 86.16253996750628 C 0.0 **** -0.24
2802 H 134.7175347005689 46.042721341785594 85.35248876772714 H 0.0 **** 0.06
2803 H 133.8060333170008 47.46904935835941 85.90242914725238 H 0.0 **** 0.06
2804 H 135.5295295126217 47.300235461651866 86.31626444384838 H 0.0 **** 0.06
2805 H 134.32276829627867 46.23515850192089 87.07726795131391 H 0.0 **** 0.06
2806 C 109.98704704605106 114.32928014022593 107.34320504336955 C 0.0 **** -0.24
2807 H 110.88078884791796 114.45282348520317 106.73186579214249 H 0.0 **** 0.06
2808 H 109.97617070730152 115.08466532941685 108.1289448116778 H 0.0 **** 0.06
2809 H 109.98923030183468 113.33676967444762 107.79297747132051 H 0.0 **** 0.06
2810 H 109.10123571628492 114.4427262183313 106.71784885652474 H 0.0 **** 0.06
2811 C 88.33847915094424 80.32659781707835 136.04695656289044 C 0.0 **** -0.24
2812 H 87.83617689263585 79.46987212872895 135.59669703706282 H 0.0 **** 0.06
2813 H 88.53414912889906 80.11979679347812 137.10056360493402 H 0.0 **** 0.06
2814 H 87.70168079235603 81.20683436719031 135.9612156238935 H 0.0 **** 0.06
2815 H 89.28100375539725 80.50713167847942 135.53060790970483 H 0.0 **** 0.06
2816 C 123.43787296285846 114.37508669000107 105.04886172245324 C 0.0 **** -0.24
2817 H 124.44049800075155 114.38197519613189 105.47623935048003 H 0.0 **** 0.06
2818 H 122.86640230327268 115.21334110362596 105.44864657745654 H 0.0 **** 0.06
2819 H 122.93987823366716 113.43933943941772 105.30748211215911 H 0.0 **** 0.06
2820 H 123.50401178178123 114.46308420499292 103.96438758239617 H 0.0 **** 0.06
2821 C 34.518984811360724 12.76655030363608 129.6640117715622 C 0.0 **** -0.24
2822 H 34.926680850860635 13.607299555770481 130.22697605497117 H 0.0 **** 0.06
2823 H 33.507907833481994 13.005688760611633 129.33595056075706 H 0.0 **** 0.06
2824 H 34.496222012462795 11.881216274459263 130.29879247034643 H 0.0 **** 0.06
2825 H 35.14841553149202 12.573751870036801 128.7946678573117 H 0.0 **** 0.06
2826 C 78.78939127586891 107.49536372048374 109.10939082664862 C 0.0 **** -0.24
2827 H 79.61749199408412 107.59741235159197 108.40873449717492 H 0.0 **** 0.06
2828 H 78.03951722503267 108.25887615992451 108.89934848862077 H 0.0 **** 0.06
2829 H 79.15719380370835 107.61819184663324 110.12792634338314 H 0.0 **** 0.06
2830 H 78.34182490477276 106.50669327976857 109.00230105917996 H 0.0 **** 0.06
2831 C 54.50879816644979 61.51876836050957 82.46446871985322 C 0.0 **** -0.24
2832 H 54.87901080856507 60.93838360434279 83.30998999638757 H 0.0 **** 0.06
2833 H 53.60739351653365 62.05631960529274 82.7592591397451 H 0.0 **** 0.06
2834 H 54.278646106066034 60.84859541793611 81.6363507887996 H 0.0 **** 0.06
2835 H 55.272623061913976 62.23292154185026 82.15351226181323 H 0.0 **** 0.06
2836 C 6.541556368419322 55.90515785766007 71.42867244279435 C 0.0 **** -0.24
2837 H 6.571395399812246 55.72843165221548 72.50393824825976 H 0.0 **** 0.06
2838 H 6.538047711371803 54.94910092182812 70.90404501145804 H 0.0 **** 0.06
2839 H 7.416861730823882 56.48078393740258 71.13017096632258 H 0.0 **** 0.06
2840 H 5.637449184247146 56.460700309610274 71.17706977415985 H 0.0 **** 0.06
2841 C 0.4206325649658993 30.399273817015768 96.68327860407048 C 0.0 **** -0.24
2842 H -0.4216233238064433 31.017391592165552 96.37192107664279 H 0.0 **** 0.06
2843 H 0.5173169511048172 29.54940440131668 96.00852375022636 H 0.0 **** 0.06
2844 H 0.25145085426697733 30.040999397047727 97.69913592173296 H 0.0 **** 0.06
2845 H 1.3353982424059154 30.992660147094995 96.65517959658695 H 0.0 **** 0.06
2846 C 48.37200771124668 70.15804454921206 133.323030587935 C 0.0 **** -0.24
2847 H 48.17681636648433 70.98598049055609 134.00494443889494 H 0.0 **** 0.06
2848 H 47.45497229470993 69.58554242879536 133.17747471532346 H 0.0 **** 0.06
2849 H 49.140873295544225 69.51231092338446 133.74539273832775 H 0.0 **** 0.06
2850 H 48.71181109830877 70.54946570130082 132.3646026236661 H 0.0 **** 0.06
2851 C 93.1524263795583 130.09280041731287 78.49707158533093 C 0.0 **** -0.24
2852 H 93.6626443208902 130.42757438889774 77.5933038316234 H 0.0 **** 0.06
2853 H 93.86556040400507 130.04614780048266 79.32038712674633 H 0.0 **** 0.06
2854 H 92.725723374089 129.1045926846428 78.32765479643632 H 0.0 **** 0.06
2855 H 92.35620011366007 130.7951870711939 78.74458887018103 H 0.0 **** 0.06
2856 C 31.684220215714504 35.24584888245684 62.974039165330396 C 0.0 **** -0.24
2857 H 32.75746991068013 35.37554712069175 63.10944031355075 H 0.0 **** 0.06
2858 H 31.492716597262927 34.800145128480466 61.99768748065583 H 0.0 **** 0.06
2859 H 31.190363371008658 36.216124674697426 63.03409251172582 H 0.0 **** 0.06
2860 H 31.296246538128628 34.59257117432938 63.75502423760804 H 0.0 **** 0.06
2861 C 84.09179497413174 5.620153498471041 81.97310552064312 C 0.0 **** -0.24
2862 H 85.06911229350976 5.193299737069424 81.7451014794879 H 0.0 **** 0.06
2863 H 83.43055954361603 5.489822815621892 81.11568920423228 H 0.0 **** 0.06
2864 H 84.20150285007435 6.682863919255624 82.18970610871185 H 0.0 **** 0.06
2865 H 83.66778166728227 5.114364931379441 82.8402593005216 H 0.0 **** 0.06
2866 C 60.84115961288096 122.44683966738553 126.46140142879513 C 0.0 **** -0.24
2867 H 60.30110511633576 122.5532922106626 127.40169128509032 H 0.0 **** 0.06
2868 H 60.34536452522684 123.03383017464138 125.68779592771662 H 0.0 **** 0.06
2869 H 60.85571269678023 121.39711522390778 126.16792592774851 H 0.0 **** 0.06
2870 H 61.8641246453294 122.8026577873411 126.58815361763064 H 0.0 **** 0.06
2871 C 35.64671472753059 26.440053723962137 39.10381846943142 C 0.0 **** -0.24
2872 H 35.768990812633774 25.52354402091197 38.5276504992529 H 0.0 **** 0.06
2873 H 34.58770578761107 26.600506898166884 39.3106227113073 H 0.0 **** 0.06
2874 H 36.03665182778957 27.282954660083817 38.53240078022225 H 0.0 **** 0.06
2875 H 36.191489635188645 26.355094366399953 40.04343233287432 H 0.0 **** 0.06
2876 C 47.67922731976971 135.43705735756333 76.11476158155618 C 0.0 **** -0.24
2877 H 47.60916439449419 135.7154150879484 75.06322830922281 H 0.0 **** 0.06
2878 H 48.178752197181126 136.2321530867916 76.66791591858676 H 0.0 **** 0.06
2879 H 48.25043417179933 134.51419972211716 76.20849266013039 H 0.0 **** 0.06
2880 H 46.677027580072576 135.2874073277162 76.51774751542803 H 0.0 **** 0.06
2881 C 71.25594873982857 5.030110409518926 53.581268318620914 C 0.0 **** -0.24
2882 H 71.08461234116356 4.122913278822953 53.002269835714856 H 0.0 **** 0.06
2883 H 70.76825036347049 4.939377793465447 54.55248714342861 H 0.0 **** 0.06
2884 H 70.84351621526935 5.885500872527892 53.0453208646116 H 0.0 **** 0.06
2885 H 72.32741603941099 5.172649693259604 53.7249954307286 H 0.0 **** 0.06
2886 C 122.07628778347353 5.461480254744856 135.56930381320905 C 0.0 **** -0.24
2887 H 121.13693712710213 5.973862968435327 135.36189756189367 H 0.0 **** 0.06
2888 H 122.78563955442404 6.1649814046141955 136.00376578051316 H 0.0 **** 0.06
2889 H 122.48391051119908 5.061225771064898 134.64067301984846 H 0.0 **** 0.06
2890 H 121.89791915710249 4.644444153195195 136.26966785126513 H 0.0 **** 0.06
2891 C 132.9942097627998 62.279026855394875 52.93529962913047 C 0.0 **** -0.24
2892 H 133.85830252291348 62.313392123672486 52.27113787827747 H 0.0 **** 0.06
2893 H 132.954857150838 61.30759545362497 53.42802821680168 H 0.0 **** 0.06
2894 H 132.08439686776393 62.429580685763085 52.35400356632533 H 0.0 **** 0.06
2895 H 133.08122511282514 63.065304529699034 53.68535084239062 H 0.0 **** 0.06
2896 C 62.42105213841495 131.81167023342363 9.49492911426438 C 0.0 **** -0.24
2897 H 61.93189471597228 132.68764660905828 9.920565640095731 H 0.0 **** 0.06
2898 H 61.69731770954104 131.00082006260817 9.40230827587743 H 0.0 **** 0.06
2899 H 63.23663251539806 131.4986345573547 10.146141319362414 H 0.0 **** 0.06
2900 H 62.81668723426874 132.05993445436206 8.510448146848262 H 0.0 **** 0.06
2901 C 77.29117659727689 16.987730856095254 134.01501498720722 C 0.0 **** -0.24
2902 H 76.39211229092587 16.51467591609523 133.62055023594667 H 0.0 **** 0.06
2903 H 77.04902712686655 17.517936126787504 134.93664132974845 H 0.0 **** 0.06
2904 H 77.68330055317227 17.692433067503828 133.2813926866483 H 0.0 **** 0.06
2905 H 78.04208461446581 16.224558246896436 134.22245133118543 H 0.0 **** 0.06
2906 C 101.05547283131136 55.90423248402118 14.158067278760633 C 0.0 **** -0.24
2907 H 102.1254196990361 56.063363311892545 14.294361698007677 H 0.0 **** 0.06
2908 H 100.6545077717612 55.372623360850014 15.021017927000301 H 0.0 **** 0.06
2909 H 100.88814528944195 55.31515857781733 13.256680868347445 H 0.0 **** 0.06
2910 H 100.55555001039205 56.86750651686515 14.060014529467821 H 0.0 **** 0.06
2911 C 63.73284513947975 117.69640346516724 27.467879160040184 C 0.0 **** -0.24
2912 H 62.92601763126109 118.41876153222881 27.349147531487347 H 0.0 **** 0.06
2913 H 64.6928786183102 118.20634008091528 27.382407111239843 H 0.0 **** 0.06
2914 H 63.656110665628205 116.93513442903003 26.691540098899054 H 0.0 **** 0.06
2915 H 63.6574415665778 117.2252013388929 28.447511686319814 H 0.0 **** 0.06
2916 C 100.00384411800805 51.90408111040938 114.06128393316612 C 0.0 **** -0.24
2917 H 100.24331423508724 52.33548447009474 115.03394745784749 H 0.0 **** 0.06
2918 H 99.16144115278541 52.44064725464955 113.62385266372578 H 0.0 **** 0.06
2919 H 99.74307623466372 50.85345269736845 114.18392590413188 H 0.0 **** 0.06
2920 H 100.87017641679789 51.98942150545483 113.40510831657534 H 0.0 **** 0.06
2921 C 58.6515779218565 76.52444673877932 83.14719019389763 C 0.0 **** -0.24
2922 H 59.706200970346416 76.46032601677672 83.41791494598249 H 0.0 **** 0.06
2923 H 58.44190789040411 77.51260355285063 82.73911103873611 H 0.0 **** 0.06
2924 H 58.039291782612736 76.35785443538873 84.03325155393482 H 0.0 **** 0.06
2925 H 58.421914277400376 75.76538191666452 82.39907770836095 H 0.0 **** 0.06
2926 C 33.65171439310501 100.60267484836811 43.172758557012685 C 0.0 **** -0.24
2927 H 33.547676183759734 99.66687437543249 43.72206502531304 H 0.0 **** 0.06
2928 H 34.08837412268426 100.40222403508662 42.19468709498267 H 0.0 **** 0.06
2929 H 34.2996619693574 101.28007008780136 43.72875736769413 H 0.0 **** 0.06
2930 H 32.6704076059149 101.05946034807452 43.04593568891198 H 0.0 **** 0.06
2931 C 50.471738767675305 0.6822001621662253 17.738273515568437 C 0.0 **** -0.24
2932 H 50.888233142791876 -0.26044912984531265 17.38362326943337 H 0.0 **** 0.06
2933 H 49.39062601547792 0.5878084911655037 17.836754271963002 H 0.0 **** 0.06
2934 H 50.70403926777627 1.4728212052877439 17.023938186673604 H 0.0 **** 0.06
2935 H 50.905306865467196 0.9291162527232473 18.70673113107017 H 0.0 **** 0.06
2936 C 44.541501727474014 82.10029658717994 63.12689088791308 C 0.0 **** -0.24
2937 H 45.18046548535186 82.66237438726273 63.80865181845121 H 0.0 **** 0.06
2938 H 45.12470700648818 81.31178518396783 62.64981071077676 H 0.0 **** 0.06
2939 H 44.14459445974978 82.77120135026388 62.36549253758494 H 0.0 **** 0.06
2940 H 43.71768395567027 81.65621712821635 63.685548000249184 H 0.0 **** 0.06
2941 C 68.97712134349455 2.0274385701038113 108.51600951288758 C 0.0 **** -0.24
2942 H 68.90175437956775 2.0620800008726974 109.60287374372069 H 0.0 **** 0.06
2943 H 68.99772277321959 0.9890063261111663 108.18637321902546 H 0.0 **** 0.06
2944 H 69.89133031100327 2.529075479524465 108.1983942649811 H 0.0 **** 0.06
2945 H 68.11459056595811 2.531018987655102 108.0770555500883 H 0.0 **** 0.06
2946 C 82.65638996486746 116.42830452561543 34.245001893626295 C 0.0 **** -0.24
2947 H 83.28994275873868 115.90891955325606 34.963139841857554 H 0.0 **** 0.06
2948 H 83.11512980333237 117.38070934475115 33.977753092478224 H 0.0 **** 0.06
2949 H 81.6772581668883 116.60829452056953 34.68960240696515 H 0.0 **** 0.06
2950 H 82.54223407364987 115.81579164415515 33.35084002512079 H 0.0 **** 0.06
2951 C 58.42535301126874 27.838756005503114 47.11298652498195 C 0.0 **** -0.24
2952 H 57.75770529708791 27.59014744203222 46.28754942198 H 0.0 **** 0.06
2953 H 59.45116042758576 27.593860953352873 46.8360936612423 H 0.0 **** 0.06
2954 H 58.140080371053855 27.266341733163017 47.99575404441305 H 0.0 **** 0.06
2955 H 58.351947402600445 28.90460137014759 47.33089791545552 H 0.0 **** 0.06
2956 C 49.06116925966896 87.75527784416009 89.88475120974093 C 0.0 **** -0.24
2957 H 49.09439377450434 87.33301141758149 88.88004414146121 H 0.0 **** 0.06
2958 H 49.14316293046318 86.95325113565589 90.61802212690385 H 0.0 **** 0.06
2959 H 48.117738605548766 88.28224798158995 90.02547829304274 H 0.0 **** 0.06
2960 H 49.88914308088573 88.452780489527 90.01264760179258 H 0.0 **** 0.06
2961 C 0.09460595794802984 40.1901095748193 62.902196712193074 C 0.0 **** -0.24
2962 H 0.09073150383571615 41.070709257467115 63.54512383318877 H 0.0 **** 0.06
2963 H -0.16543664224848342 40.48228467409615 61.88503763119482 H 0.0 **** 0.06
2964 H -0.634951160087315 39.46815772162762 63.27153812265044 H 0.0 **** 0.06
2965 H 1.086999800383424 39.73996930372033 62.9089222270172 H 0.0 **** 0.06
2966 C 68.89214481077113 75.99930939685939 84.7685268766777 C 0.0 **** -0.24
2967 H 67.88251609110148 76.3459123193326 84.55024889041306 H 0.0 **** 0.06
2968 H 68.89399455008345 74.91208115000518 84.85052938617514 H 0.0 **** 0.06
2969 H 69.23071660238634 76.43602543436378 85.7076851553586 H 0.0 **** 0.06
2970 H 69.56231204845085 76.30368751245749 83.96367970784331 H 0.0 **** 0.06
2971 C 119.68779770924783 81.34551422951752 131.1325837643551 C 0.0 **** -0.24
2972 H 120.66561448020883 81.74742879704665 131.39799496374087 H 0.0 **** 0.06
2973 H 118.97348294935887 81.5802482948928 131.92252266198125 H 0.0 **** 0.06
2974 H 119.75839189360045 80.26403188071286 131.0158213658434 H 0.0 **** 0.06
2975 H 119.35328052202516 81.79148414335057 130.19612493838332 H 0.0 **** 0.06
2976 C 124.20377253590686 1.413344353531702 68.51869234492875 C 0.0 **** -0.24
2977 H 125.29217974442764 1.4291596846532109 68.56768874808597 H 0.0 **** 0.06
2978 H 123.88847009606978 0.9342860844756586 67.59155393753413 H 0.0 **** 0.06
2979 H 123.82377086054477 2.434944355424676 68.54721007256497 H 0.0 **** 0.06
2980 H 123.81080397790043 0.8561446080215127 69.3691182492187 H 0.0 **** 0.06
2981 C 36.311456161645225 80.88076590596842 78.06658379403098 C 0.0 **** -0.24
2982 H 37.15256818932542 80.55085484324711 77.4560288373603 H 0.0 **** 0.06
2983 H 36.63234714386032 80.97926684221754 79.10411868673901 H 0.0 **** 0.06
2984 H 35.507589530191176 80.14721664533988 78.00238879814464 H 0.0 **** 0.06
2985 H 35.95500544702241 81.84486719669611 77.70260619305702 H 0.0 **** 0.06
2986 C 35.169493246808145 129.59797529604677 70.01874430889461 C 0.0 **** -0.24
2987 H 34.35931572656432 129.8622933405377 69.34015433286356 H 0.0 **** 0.06
2988 H 34.84544454845269 129.74970720247396 71.04872536117887 H 0.0 **** 0.06
2989 H 36.03507797344258 130.2290484055163 69.81307965103417 H 0.0 **** 0.06
2990 H 35.44049845329732 128.55261620004913 69.87246861789492 H 0.0 **** 0.06
2991 C 74.946029936267 130.7728090917879 125.31851004250582 C 0.0 **** -0.24
2992 H 75.3225428209168 129.8949271502932 124.79239745119168 H 0.0 **** 0.06
2993 H 74.56601457853026 130.47450605321407 126.29543873603853 H 0.0 **** 0.06
2994 H 74.14252455880211 131.22609816469938 124.73843059743979 H 0.0 **** 0.06
2995 H 75.75383648060478 131.49297829279308 125.4468102763697 H 0.0 **** 0.06
2996 C 54.69750301398142 38.54275568426337 99.98046892509468 C 0.0 **** -0.24
2997 H 55.40739657214806 39.370211665260975 99.9824239609032 H 0.0 **** 0.06
2998 H 54.628713575072226 38.121843229695756 100.98423276314301 H 0.0 **** 0.06
2999 H 55.03765445826963 37.77490545715789 99.28617284244476 H 0.0 **** 0.06
3000 H 53.71752785815653 38.906604505270856 99.67042404671243 H 0.0 **** 0.06
3001 C 42.23355924746093 75.16487003500731 36.374892615006274 C 0.0 **** -0.24
3002 H 42.641799673786096 75.45977317277391 37.34084804379724 H 0.0 **** 0.06
3003 H 42.727940952051924 74.25482106262035 36.03375818356394 H 0.0 **** 0.06
3004 H 42.40007432711482 75.96235471548556 35.651020419207285 H 0.0 **** 0.06
3005 H 41.16318362776292 74.98225260865672 36.47332025236622 H 0.0 **** 0.06
3006 C 117.40864740714949 77.66801257568656 49.87907109452652 C 0.0 **** -0.24
3007 H 117.3607641217807 76.96526953617597 50.711672158523186 H 0.0 **** 0.06
3008 H 117.38341601442957 78.68748261753252 50.263318735063024 H 0.0 **** 0.06
3009 H 116.5564983245888 77.5068684780745 49.21913809703679 H 0.0 **** 0.06
3010 H 118.33345528147143 77.51019746268797 49.32383162870775 H 0.0 **** 0.06
3011 C 87.77038550275353 107.22442362134191 44.25032400532103 C 0.0 **** -0.24
3012 H 88.45291232055943 106.75359114669743 44.95837062848415 H 0.0 **** 0.06
3013 H 88.27835855868996 107.36639953184272 43.29612313312353 H 0.0 **** 0.06
3014 H 87.45247100144732 108.19115324486782 44.64120158394732 H 0.0 **** 0.06
3015 H 86.89827829411986 106.58604484298968 44.107475720551804 H 0.0 **** 0.06
3016 C 58.50629140205672 85.73235972644738 55.51252404443618 C 0.0 **** -0.24
3017 H 58.79118730783614 86.77036602742174 55.68526755537012 H 0.0 **** 0.06
3018 H 57.79097226513346 85.68285833668517 54.69188454840426 H 0.0 **** 0.06
3019 H 58.05331495860702 85.32544901244933 56.41650416978261 H 0.0 **** 0.06
3020 H 59.39296497775064 85.15146771626826 55.25810998017501 H 0.0 **** 0.06
3021 C 12.735272376553496 134.51823325570297 13.84988608926426 C 0.0 **** -0.24
3022 H 13.057508572263828 135.27810696697324 14.562319153844768 H 0.0 **** 0.06
3023 H 13.601252635509525 134.1437754333921 13.30241309993821 H 0.0 **** 0.06
3024 H 12.022768110087867 134.95463070465595 13.15004397239548 H 0.0 **** 0.06
3025 H 12.260989694741994 133.69619127179124 14.386148137355775 H 0.0 **** 0.06
3026 C 47.216119903622754 94.75784091222303 108.14613136342054 C 0.0 **** -0.24
3027 H 47.25689560962957 93.83514117662014 108.72504984244033 H 0.0 **** 0.06
3028 H 48.17963706456342 94.92675700737277 107.66462733959662 H 0.0 **** 0.06
3029 H 46.98789123893059 95.59212750967728 108.8085508355559 H 0.0 **** 0.06
3030 H 46.43949115068429 94.67386252025295 107.38552075287923 H 0.0 **** 0.06
3031 C 87.84988514662905 118.80240910332205 51.128027970076886 C 0.0 **** -0.24
3032 H 87.54932030665856 117.80058166004875 51.43515599394479 H 0.0 **** 0.06
3033 H 87.67184921584703 118.92335353238823 50.06003936542601 H 0.0 **** 0.06
3034 H 88.91096770439393 118.9429475998208 51.338175245944356 H 0.0 **** 0.06
3035 H 87.2693314758238 119.54083912090204 51.68001307461027 H 0.0 **** 0.06
3036 C 110.54774351577288 4.971566208553725 57.38147903801405 C 0.0 **** -0.24
3037 H 109.76914439673692 5.438906924616802 56.77836284577779 H 0.0 **** 0.06
3038 H 110.807300511846 4.003322753009829 56.951550075666944 H 0.0 **** 0.06
3039 H 110.18394841869548 4.83220080802197 58.39944832587014 H 0.0 **** 0.06
3040 H 111.42916638207507 5.612196897945232 57.39486127161001 H 0.0 **** 0.06
3041 C 65.5610797337352 12.993177057259246 36.46338424815269 C 0.0 **** -0.24
3042 H 64.70368113477934 12.43993241854767 36.8459401904708 H 0.0 **** 0.06
3043 H 65.69318929323681 13.906427688631794 37.04339924874827 H 0.0 **** 0.06
3044 H 65.39218988763558 13.247518927963071 35.41675560355685 H 0.0 **** 0.06
3045 H 66.45651586324428 12.376759138072288 36.54707522840263 H 0.0 **** 0.06
3046 C 109.9107596519585 16.505375196178086 39.47136986574519 C 0.0 **** -0.24
3047 H 110.15479308851587 16.578382458913467 40.53108429559535 H 0.0 **** 0.06
3048 H 109.02056639062931 17.09828583061782 39.26205196175039 H 0.0 **** 0.06
3049 H 109.72321392663855 15.462876778477742 39.2131069407245 H 0.0 **** 0.06
3050 H 110.74634989408491 16.880756692409918 38.87933877545217 H 0.0 **** 0.06
3051 C 33.78752850787461 90.523948316076 84.3162043415171 C 0.0 **** -0.24
3052 H 32.97979456960547 91.24623930167668 84.4368016292155 H 0.0 **** 0.06
3053 H 33.842707254493995 90.21176477858823 83.27376596732466 H 0.0 **** 0.06
3054 H 33.594844011149554 89.65544562903047 84.94703545045809 H 0.0 **** 0.06
3055 H 34.7312574056351 90.98393453724925 84.60949176296515 H 0.0 **** 0.06
3056 C 127.7423005078716 64.09858276276323 9.400686886307511 C 0.0 **** -0.24
3057 H 128.6722965747143 63.685169560687754 9.79124662932901 H 0.0 **** 0.06
3058 H 127.96851494823171 64.86888377452685 8.663006421463706 H 0.0 **** 0.06
3059 H 127.16851363851876 64.53549452587531 10.217753458862035 H 0.0 **** 0.06
3060 H 127.16084974526271 63.30519617072119 8.931680744759916 H 0.0 **** 0.06
3061 C 49.653082626377284 85.14730442260685 61.62526592141137 C 0.0 **** -0.24
3062 H 50.11900754864314 84.73521426866954 60.73058569968816 H 0.0 **** 0.06
3063 H 50.35774583915713 85.10091724440598 62.45553036437968 H 0.0 **** 0.06
3064 H 48.76280822575876 84.56730203701707 61.87096664271439 H 0.0 **** 0.06
3065 H 49.37265475534028 86.18438780059569 61.44378784455705 H 0.0 **** 0.06
3066 C 91.11960629883254 40.72003753813806 74.2106055980335 C 0.0 **** -0.24
3067 H 90.60416432195268 40.65232557109374 73.25214654454066 H 0.0 **** 0.06
3068 H 90.38998855874769 40.67086132982658 75.01888816913569 H 0.0 **** 0.06
3069 H 91.66081226690153 41.664186023178985 74.26537569854473 H 0.0 **** 0.06
3070 H 91.82226357334542 39.89232383187988 74.30417810087329 H 0.0 **** 0.06
3071 C 90.07657470857804 75.40420535435939 67.96129306718059 C 0.0 **** -0.24
3072 H 90.52407725677543 74.50462630760725 68.38391709666342 H 0.0 **** 0.06
3073 H 90.83480366532707 75.96273999318808 67.4119616617405 H 0.0 **** 0.06
3074 H 89.67845995303719 76.0233499654977 68.76455678840071 H 0.0 **** 0.06
3075 H 89.26985967895581 75.12409153671862 67.28437273001052 H 0.0 **** 0.06
3076 C 95.59256379303278 121.59535818464599 79.91581264835447 C 0.0 **** -0.24
3077 H 94.67971017244889 121.95997698267044 80.38769027986302 H 0.0 **** 0.06
3078 H 96.1319872231505 122.43242116437837 79.47195679484506 H 0.0 **** 0.06
3079 H 95.33741555150522 120.87454232209053 79.13914868059521 H 0.0 **** 0.06
3080 H 96.22091310456804 121.11433707690665 80.66541580920608 H 0.0 **** 0.06
3081 C 52.012202561252025 122.45297205273397 58.53008448511406 C 0.0 **** -0.24
3082 H 51.57356967326231 123.33602153811307 58.06557307454803 H 0.0 **** 0.06
3083 H 52.58460325022497 121.8989686523729 57.786184802097964 H 0.0 **** 0.06
3084 H 51.21898260268398 121.8188638963145 58.92588493740216 H 0.0 **** 0.06
3085 H 52.67110592600153 122.76017043571613 59.341629632469974 H 0.0 **** 0.06
3086 C 98.6169813754209 112.11556860519764 7.8688803955677145 C 0.0 **** -0.24
3087 H 99.41010457114248 111.96033803412615 7.1366029980884775 H 0.0 **** 0.06
3088 H 98.68750609587846 111.3560649496907 8.647070918751325 H 0.0 **** 0.06
3089 H 97.647943682509 112.0425693474007 7.374919737350211 H 0.0 **** 0.06
3090 H 98.7234103275842 113.10448186593496 8.314372803958804 H 0.0 **** 0.06
3091 C 5.3165048928323415 20.7838134755618 45.99282661012707 C 0.0 **** -0.24
3092 H 5.760279571388395 19.881708564032436 46.4140175720934 H 0.0 **** 0.06
3093 H 4.967276846400466 21.427435834830305 46.801669116576235 H 0.0 **** 0.06
3094 H 4.475211256878907 20.511447436718356 45.355376353210566 H 0.0 **** 0.06
3095 H 6.063590691162034 21.314819431808843 45.40266429362329 H 0.0 **** 0.06
3096 C 125.06088131931965 111.93293061648862 49.305285173060014 C 0.0 **** -0.24
3097 H 125.70523454654952 111.20990457399279 48.80466321547473 H 0.0 **** 0.06
3098 H 124.03307001719845 111.56966030267063 49.297180654263585 H 0.0 **** 0.06
3099 H 125.113116347146 112.88898222230733 48.78279501285844 H 0.0 **** 0.06
3100 H 125.39311052307879 112.06265100736343 50.334574913842744 H 0.0 **** 0.06
3101 C 69.36317204001179 95.35176772661674 38.993751712105734 C 0.0 **** -0.24
3102 H 69.77586198124105 96.03072087310906 38.24780889831276 H 0.0 **** 0.06
3103 H 69.11631876023465 94.40092423951899 38.52055490033298 H 0.0 **** 0.06
3104 H 68.46259762248769 95.78811195787102 39.42443307606613 H 0.0 **** 0.06
3105 H 70.09909712828335 95.18609429693288 39.7804483707849 H 0.0 **** 0.06
3106 C 58.25631033604867 28.773108667243946 56.87321931889025 C 0.0 **** -0.24
3107 H 57.93926449237037 28.61161202370431 57.90335077340251 H 0.0 **** 0.06
3108 H 59.34589646540462 28.807532478368557 56.83015856270333 H 0.0 **** 0.06
3109 H 57.84745120185846 29.716456794981752 56.511725800617285 H 0.0 **** 0.06
3110 H 57.893732147486475 27.95655924600885 56.248949222159354 H 0.0 **** 0.06
3111 C 103.01907016627592 102.67834539524961 1.807868557916521 C 0.0 **** -0.24
3112 H 102.50948596453755 103.63740309463537 1.8904654612417104 H 0.0 **** 0.06
3113 H 103.94634921411598 102.8072410123051 1.2478367359752092 H 0.0 **** 0.06
3114 H 102.3762378992797 101.96773974474604 1.288445471399637 H 0.0 **** 0.06
3115 H 103.2466362188845 102.30068360680082 2.804784469222202 H 0.0 **** 0.06
3116 C 14.73401860862392 1.0340482973642793 116.10022764962733 C 0.0 **** -0.24
3117 H 14.739607063312711 0.9286561877855206 117.1857125160088 H 0.0 **** 0.06
3118 H 14.674983812106113 0.04839560982048852 115.63966528861758 H 0.0 **** 0.06
3119 H 15.649686577059633 1.5318521765702258 115.77962263575813 H 0.0 **** 0.06
3120 H 13.871980349515013 1.6295450233194515 115.79853280232675 H 0.0 **** 0.06
3121 C 48.31978391977162 5.529731445493212 49.71062789495694 C 0.0 **** -0.24
3122 H 48.93594017346851 5.557905371905235 48.81189614105831 H 0.0 **** 0.06
3123 H 48.29627563320557 6.52000382111828 50.1661847774585 H 0.0 **** 0.06
3124 H 48.74191615462084 4.814410430253986 50.4170904371141 H 0.0 **** 0.06
3125 H 47.30694300569277 5.225283197060094 49.448039661847616 H 0.0 **** 0.06
3126 C 46.41348896380666 19.337950927249565 106.20757245927969 C 0.0 **** -0.24
3127 H 47.32913866242046 18.776097167504012 106.39199329340336 H 0.0 **** 0.06
3128 H 46.26004381480169 20.057009160350674 107.01257489992747 H 0.0 **** 0.06
3129 H 45.567758621612626 18.6510684604808 106.16766315170837 H 0.0 **** 0.06
3130 H 46.49702758365777 19.867039165742547 105.25886600117659 H 0.0 **** 0.06
3131 C 8.548667020919762 134.91412341766562 62.53162575360864 C 0.0 **** -0.24
3132 H 8.82862602368417 134.99337108123518 63.58225549045217 H 0.0 **** 0.06
3133 H 8.257245895574908 135.89704249458927 62.1586338314239 H 0.0 **** 0.06
3134 H 7.711698415266355 134.22371939117576 62.42984722533768 H 0.0 **** 0.06
3135 H 9.3976137804725 134.5444771196106 61.95688663385636 H 0.0 **** 0.06
3136 C 96.6816423904464 80.44367031314101 26.206369639695275 C 0.0 **** -0.24
3137 H 97.31240566424137 80.68845452160755 27.060195374377763 H 0.0 **** 0.06
3138 H 97.00229518015983 81.02402943105896 25.340155329760925 H 0.0 **** 0.06
3139 H 95.6444265856267 80.68371774644052 26.440088838883923 H 0.0 **** 0.06
3140 H 96.76805351013981 79.379980695643 25.98320242470718 H 0.0 **** 0.06
3141 C 112.93260936870786 19.306627165846862 44.537112450999814 C 0.0 **** -0.24
3142 H 112.3908673494276 18.73584399318733 43.78290610236229 H 0.0 **** 0.06
3143 H 114.00476352443636 19.19556727050977 44.375720944761724 H 0.0 **** 0.06
3144 H 112.67431684328557 18.93445913786482 45.5292394885995 H 0.0 **** 0.06
3145 H 112.65932894516791 20.358803320410146 44.46111781110966 H 0.0 **** 0.06
3146 C 98.68599933582425 56.033507487036076 2.4799484074314364 C 0.0 **** -0.24
3147 H 98.04957143010779 56.86117532596131 2.794196024161124 H 0.0 **** 0.06
3148 H 99.41410717316228 55.817492947673074 3.2619974927314956 H 0.0 **** 0.06
3149 H 99.20616207639719 56.3033600681773 1.5617184269671043 H 0.0 **** 0.06
3150 H 98.07112941885458 55.15010424085119 2.302367891385643 H 0.0 **** 0.06
3151 C 44.18414168209394 0.7655208425984767 73.14513983419242 C 0.0 **** -0.24
3152 H 45.05443381235372 0.18862732205440125 72.83414549088721 H 0.0 **** 0.06
3153 H 44.17650232020743 0.8539538471326011 74.23204845907753 H 0.0 **** 0.06
3154 H 43.27593064180607 0.2612160817139966 72.81521943108517 H 0.0 **** 0.06
3155 H 44.230486116600474 1.7593353861372805 72.69967612605173 H 0.0 **** 0.06
3156 C 69.7727373988556 51.2853896511067 109.51953261799511 C 0.0 **** -0.24
3157 H 68.84234639060479 50.81209976837323 109.2033279522043 H 0.0 **** 0.06
3158 H 69.54643483153615 52.159484036723995 110.13108659614142 H 0.0 **** 0.06
3159 H 70.33955632703376 51.593598921940156 108.64063590094243 H 0.0 **** 0.06
3160 H 70.3603802704023 50.57611576487557 110.1010920752145 H 0.0 **** 0.06
3161 C 135.60849248523627 21.281723235449405 61.93839086274467 C 0.0 **** -0.24
3162 H 136.2776999335203 21.834364890746954 62.59823757158988 H 0.0 **** 0.06
3163 H 136.04464252197687 21.228182088621907 60.941345472228505 H 0.0 **** 0.06
3164 H 134.64642427186172 21.792728945408847 61.88666042516553 H 0.0 **** 0.06
3165 H 135.46440239193805 20.274216126581614 62.328586367123066 H 0.0 **** 0.06
3166 C 78.56603295648267 50.60435827257788 24.431817974763476 C 0.0 **** -0.24
3167 H 78.0795747678307 50.226324588643706 23.53260886252002 H 0.0 **** 0.06
3168 H 78.36946630094644 51.67234247018018 24.53028321498482 H 0.0 **** 0.06
3169 H 79.64113423492068 50.43803560038168 24.359312097198654 H 0.0 **** 0.06
3170 H 78.17591429283868 50.080510348137466 25.304009929722895 H 0.0 **** 0.06
3171 C 30.940613183327173 33.82370975036173 28.891468524168488 C 0.0 **** -0.24
3172 H 31.802556513813073 34.49126548591917 28.89677136297439 H 0.0 **** 0.06
3173 H 30.52719470623262 33.77138726164071 27.884667379612694 H 0.0 **** 0.06
3174 H 30.183375537136328 34.20482380150909 29.577285796299066 H 0.0 **** 0.06
3175 H 31.25087749282683 32.82845547789407 29.2092468088274 H 0.0 **** 0.06
3176 C 66.52843397951938 2.3635775230758327 75.45484306381229 C 0.0 **** -0.24
3177 H 65.88296613856471 1.5481931112317966 75.12933644616496 H 0.0 **** 0.06
3178 H 66.17114402813979 3.3016289169764264 75.03119286928477 H 0.0 **** 0.06
3179 H 67.54828743139439 2.1762636508475453 75.11770874884573 H 0.0 **** 0.06
3180 H 66.5119960156552 2.4258704244324463 76.5437849975404 H 0.0 **** 0.06
3181 C 103.49597242924625 46.77086861107745 68.19197193211383 C 0.0 **** -0.24
3182 H 103.12746668221541 46.43353630120487 69.16064085388642 H 0.0 **** 0.06
3183 H 103.38719862148821 47.85356776602913 68.11907529423388 H 0.0 **** 0.06
3184 H 102.92126614293227 46.293774081691424 67.39859527401299 H 0.0 **** 0.06
3185 H 104.54756857287612 46.50206078485269 68.0903255797678 H 0.0 **** 0.06
3186 C 123.51566333294275 90.48838279339833 27.087043124474206 C 0.0 **** -0.24
3187 H 124.30115451340663 90.21463564068594 26.38193660039593 H 0.0 **** 0.06
3188 H 123.77203581860543 90.11616273633283 28.07877818292019 H 0.0 **** 0.06
3189 H 122.57178670507312 90.04794928300129 26.76600217823787 H 0.0 **** 0.06
3190 H 123.4183276529055 91.57302556426148 27.118217327650257 H 0.0 **** 0.06
3191 C 67.30724540373785 78.08056934235144 16.232453702347115 C 0.0 **** -0.24
3192 H 67.3692335077163 79.05413862778639 16.719136765082737 H 0.0 **** 0.06
3193 H 68.30596248052085 77.75833958168997 15.937814528615164 H 0.0 **** 0.06
3194 H 66.67378401432472 78.1567525250153 15.34808788290664 H 0.0 **** 0.06
3195 H 66.87955117313162 77.35509377456181 16.92399681607182 H 0.0 **** 0.06
3196 C 135.17652130568794 110.17063621302236 13.666556746955962 C 0.0 **** -0.24
3197 H 135.40296242183396 110.01442958453049 12.61176815247073 H 0.0 **** 0.06
3198 H 134.12950084480903 109.93049222305154 13.853479499958425 H 0.0 **** 0.06
3199 H 135.36235785598456 111.21268304226228 13.927790873766682 H 0.0 **** 0.06
3200 H 135.81064391299893 109.52578221871016 14.274140371313138 H 0.0 **** 0.06
3201 C 86.35571694572077 43.38380103629737 9.101547046624574 C 0.0 **** -0.24
3202 H 86.98302453243261 43.007253828960785 9.909600548027953 H 0.0 **** 0.06
3203 H 85.59550490983537 44.04936300420036 9.511206682986455 H 0.0 **** 0.06
3204 H 85.8730674514366 42.546780024540766 8.596083499748772 H 0.0 **** 0.06
3205 H 86.97208888840105 43.93123046161281 8.388298335184373 H 0.0 **** 0.06
3206 C 75.3828196243187 86.99010014878047 21.83198982277031 C 0.0 **** -0.24
3207 H 74.81683030484078 87.24368409363694 22.728699566449393 H 0.0 **** 0.06
3208 H 75.38135445964195 85.90768614160675 21.697205141207206 H 0.0 **** 0.06
3209 H 76.40830701509049 87.34210321583933 21.937831452253292 H 0.0 **** 0.06
3210 H 74.92193802821816 87.46581368196627 20.96613252189782 H 0.0 **** 0.06
3211 C 64.90252904499482 131.0732535419201 83.21355254619647 C 0.0 **** -0.24
3212 H 65.04953986952557 130.64322643681305 82.2224276279893 H 0.0 **** 0.06
3213 H 65.8243779042416 130.98374354018208 83.78870793926788 H 0.0 **** 0.06
3214 H 64.1015373544214 130.5384951530225 83.7246903671984 H 0.0 **** 0.06
3215 H 64.6344559599832 132.12523627639032 83.11760364112865 H 0.0 **** 0.06
3216 C 97.04071131210954 67.83313929046051 76.63206111020476 C 0.0 **** -0.24
3217 H 96.52015163786372 68.60123701364614 76.05901780279855 H 0.0 **** 0.06
3218 H 98.0454767792537 68.17973236904413 76.87440109859403 H 0.0 **** 0.06
3219 H 97.1032797664108 66.91933207427923 76.0424277040909 H 0.0 **** 0.06
3220 H 96.49277627266417 67.63475080119514 77.5535926042766 H 0.0 **** 0.06
3221 C 93.80461171939965 58.06069917078891 23.637251330217325 C 0.0 **** -0.24
3222 H 93.49706708966164 57.45838682158852 24.49238010417386 H 0.0 **** 0.06
3223 H 93.51741139291786 59.09900723112533 23.801450537229528 H 0.0 **** 0.06
3224 H 93.31866838234379 57.68593843201988 22.735813271612287 H 0.0 **** 0.06
3225 H 94.88671584538065 57.996751521640476 23.52015969720906 H 0.0 **** 0.06
3226 C 7.613499515008925 121.6429141541722 83.24107821982432 C 0.0 **** -0.24
3227 H 7.948980904734526 122.02125072112487 82.27546611309197 H 0.0 **** 0.06
3228 H 8.371345882255639 120.97608522859075 83.65313180967973 H 0.0 **** 0.06
3229 H 6.679110261111475 121.09716444240438 83.11222943428584 H 0.0 **** 0.06
3230 H 7.455154852554358 122.47906384722668 83.92339324820409 H 0.0 **** 0.06
3231 C 83.62533630488053 43.58749466879394 74.33263722741344 C 0.0 **** -0.24
3232 H 84.57532996130732 43.109544054186415 74.57282537939511 H 0.0 **** 0.06
3233 H 83.06037049661228 43.75200694419888 75.2501694661982 H 0.0 **** 0.06
3234 H 83.05364601121858 42.944079612495386 73.6634583582196 H 0.0 **** 0.06
3235 H 83.81364434475495 44.54387753829694 73.84436171992064 H 0.0 **** 0.06
3236 C 6.045777887453699 89.20008990981106 85.3576618403726 C 0.0 **** -0.24
3237 H 5.113435103637098 88.6439083409735 85.45208657584925 H 0.0 **** 0.06
3238 H 6.887680005464322 88.51174687274741 85.42850481572583 H 0.0 **** 0.06
3239 H 6.110980243462635 89.93774597463498 86.15854655337012 H 0.0 **** 0.06
3240 H 6.0700541412920295 89.70778046355852 84.39305826414511 H 0.0 **** 0.06
3241 C 23.219550636513986 2.697280914662091 116.43079209733924 C 0.0 **** -0.24
3242 H 22.166419074735046 2.6944137026686725 116.14852310245914 H 0.0 **** 0.06
3243 H 23.82392504890595 2.385221606670669 115.57847134432072 H 0.0 **** 0.06
3244 H 23.375673593335762 2.007170016365471 117.25898806428029 H 0.0 **** 0.06
3245 H 23.511933406588412 3.7025033529735083 116.73475630376637 H 0.0 **** 0.06
3246 C 87.56973556304737 60.17431917463209 34.06357632611709 C 0.0 **** -0.24
3247 H 87.26574398325961 61.1041468909673 34.54476196495131 H 0.0 **** 0.06
3248 H 86.68555340831493 59.61855611338538 33.75469883581955 H 0.0 **** 0.06
3249 H 88.14893611287441 59.575515986536786 34.76724782430024 H 0.0 **** 0.06
3250 H 88.18131898461259 60.40141433572954 33.19017230516523 H 0.0 **** 0.06
3251 C 102.25875316645428 57.2301542032213 25.983968666815358 C 0.0 **** -0.24
3252 H 101.96296301025325 57.765061635615055 26.886580041899393 H 0.0 **** 0.06
3253 H 102.26564289332215 56.15822841592309 26.183725370033187 H 0.0 **** 0.06
3254 H 103.25664487086007 57.55051473150182 25.683368647843764 H 0.0 **** 0.06
3255 H 101.5507062072937 57.44695483990223 25.184456300466167 H 0.0 **** 0.06
3256 C 30.911610164828204 120.4234227171463 12.309467758669314 C 0.0 **** -0.24
3257 H 30.637017391590547 120.77955028994364 11.316965373316776 H 0.0 **** 0.06
3258 H 31.995486286853577 120.32685885873181 12.372658227265362 H 0.0 **** 0.06
3259 H 30.44909480701891 119.45175908377729 12.487190746224144 H 0.0 **** 0.06
3260 H 30.564458689179048 121.13341894478029 13.059861823744342 H 0.0 **** 0.06
3261 C 5.383488007269563 19.627660938565782 76.79102205937127 C 0.0 **** -0.24
3262 H 6.403649627072127 19.763059721737363 77.14995031278036 H 0.0 **** 0.06
3263 H 5.118815650444645 20.453032152121523 76.12904847236308 H 0.0 **** 0.06
3264 H 4.699768172068616 19.6093356321511 77.63976727167241 H 0.0 **** 0.06
3265 H 5.311362524880593 18.686424862351572 76.24651071594974 H 0.0 **** 0.06
3266 C 0.9942227646915853 74.2659639102011 69.42054689745945 C 0.0 **** -0.24
3267 H 0.7329459589153657 75.18058343054116 69.95269219681737 H 0.0 **** 0.06
3268 H 0.2788829782582525 73.4828690308986 69.67300776335182 H 0.0 **** 0.06
3269 H 1.9964649089706086 73.95048023404388 69.71255520403173 H 0.0 **** 0.06
3270 H 0.9691245894896383 74.44977662107814 68.34688215104325 H 0.0 **** 0.06
3271 C 32.999652194615976 2.8397913172418896 7.038705336768601 C 0.0 **** -0.24
3272 H 33.42969333955821 3.428611495456238 7.84882351674122 H 0.0 **** 0.06
3273 H 32.51165855609031 3.50401726842108 6.325624595752913 H 0.0 **** 0.06
3274 H 32.26784666066487 2.141738490726027 7.446029535421758 H 0.0 **** 0.06
3275 H 33.790861389899945 2.2836278421657425 6.5350682642522315 H 0.0 **** 0.06
3276 C 127.5411778438988 77.09879976140485 32.224555462279625 C 0.0 **** -0.24
3277 H 126.81632488259093 76.5186002267368 32.79569183187999 H 0.0 **** 0.06
3278 H 127.47499378962121 78.14790208501711 32.511741844586936 H 0.0 **** 0.06
3279 H 127.3281716520341 76.99804845076869 31.159530731975735 H 0.0 **** 0.06
3280 H 128.5453817126287 76.72792985553113 32.430492777158406 H 0.0 **** 0.06
3281 C 101.00879990731777 95.09791053612133 119.94637134785751 C 0.0 **** -0.24
3282 H 100.06086725668005 94.5675013428577 120.03486328339909 H 0.0 **** 0.06
3283 H 101.31593355608628 95.12151013089047 118.9013732677349 H 0.0 **** 0.06
3284 H 101.76825809205276 94.58655914659856 120.53835032673464 H 0.0 **** 0.06
3285 H 100.88915899215526 96.11779537964338 120.31407107920256 H 0.0 **** 0.06
3286 C 82.10806404394549 53.83881444011334 61.134003932935514 C 0.0 **** -0.24
3287 H 82.27045487973322 53.462164665552564 62.14364159196276 H 0.0 **** 0.06
3288 H 81.15203514852283 53.47284146544865 60.7592658823786 H 0.0 **** 0.06
3289 H 82.91080573713504 53.49077737908918 60.48392390616584 H 0.0 **** 0.06
3290 H 82.1000651367348 54.92814328324312 61.149093547765915 H 0.0 **** 0.06
3291 C 131.38013466829136 92.56537272448755 75.8104108950159 C 0.0 **** -0.24
3292 H 132.19916595647442 91.96266596472454 76.20580497594604 H 0.0 **** 0.06
3293 H 130.5552520139883 91.91171169446278 75.52470478150934 H 0.0 **** 0.06
3294 H 131.7256508849784 93.11853253883703 74.93719911389447 H 0.0 **** 0.06
3295 H 131.04200108951085 93.26516702449213 76.5738829825043 H 0.0 **** 0.06
3296 C 32.00416803812209 15.749004482094676 69.53200139945051 C 0.0 **** -0.24
3297 H 31.981365264265605 15.219319515302516 68.58030876462654 H 0.0 **** 0.06
3298 H 31.439357136334934 15.185813410910782 70.27450627950748 H 0.0 **** 0.06
3299 H 31.55960337715544 16.736752875474053 69.40952510007759 H 0.0 **** 0.06
3300 H 33.03691657551178 15.854856893092801 69.86405227535923 H 0.0 **** 0.06
3301 C 42.84139370962109 8.883793045849956 32.8432825385768 C 0.0 **** -0.24
3302 H 43.23058773635983 8.278495703825229 32.025129032932256 H 0.0 **** 0.06
3303 H 42.647740732011954 8.246803759835785 33.70604566546584 H 0.0 **** 0.06
3304 H 41.914409186424535 9.364798652101797 32.53004557723921 H 0.0 **** 0.06
3305 H 43.57368818107075 9.646330796214983 33.11026772506273 H 0.0 **** 0.06
3306 C 103.84133064493511 9.77557652915226 37.64522482881932 C 0.0 **** -0.24
3307 H 103.45398259047725 9.456510626283318 36.67716308642383 H 0.0 **** 0.06
3308 H 104.74965461078877 9.219018119618113 37.87408795233097 H 0.0 **** 0.06
3309 H 103.09397750921188 9.586170484596437 38.41514278557975 H 0.0 **** 0.06
3310 H 104.06646676653214 10.841566525605117 37.61291207078864 H 0.0 **** 0.06
3311 C 31.621318048741358 106.21676768957516 117.07854909998625 C 0.0 **** -0.24
3312 H 31.235167048524488 105.2164631796672 117.27598106822339 H 0.0 **** 0.06
3313 H 31.572323347561536 106.4201514864661 116.00836796750212 H 0.0 **** 0.06
3314 H 32.65724468881024 106.27742804127068 117.41351838645241 H 0.0 **** 0.06
3315 H 31.021554562738515 106.94975423276173 117.61682643233092 H 0.0 **** 0.06
3316 C 3.0643404132611636 101.08645188202154 120.49343310778708 C 0.0 **** -0.24
3317 H 2.997779595367888 100.00964676649949 120.34107032164357 H 0.0 **** 0.06
3318 H 4.0251903602178345 101.33059080902595 120.94538949859573 H 0.0 **** 0.06
3319 H 2.258995480691368 101.41057163591728 121.15241260415381 H 0.0 **** 0.06
3320 H 2.975058127525756 101.59474010184347 119.53266472715713 H 0.0 **** 0.06
3321 C 63.969531979805254 50.33381793082252 111.95937116184956 C 0.0 **** -0.24
3322 H 64.7784605764297 50.57951389102071 111.27163642780198 H 0.0 **** 0.06
3323 H 64.38600892180332 50.06143901276745 112.92928598099914 H 0.0 **** 0.06
3324 H 63.39637904619383 49.49638251312187 111.5616103119425 H 0.0 **** 0.06
3325 H 63.315449410618584 51.19920554050219 112.07475066167214 H 0.0 **** 0.06
3326 C 92.15702556707743 59.3077059612549 5.911834066570474 C 0.0 **** -0.24
3327 H 93.2238129015509 59.26840937963655 5.690452843153945 H 0.0 **** 0.06
3328 H 91.90407025400123 58.51994702835276 6.622603798024258 H 0.0 **** 0.06
3329 H 91.58936608759689 59.16253025839595 4.992385416479173 H 0.0 **** 0.06
3330 H 91.91103179360567 60.27896034450205 6.342012035901583 H 0.0 **** 0.06
3331 C 85.55136994395947 42.103367684580874 20.237905156161318 C 0.0 **** -0.24
3332 H 85.3805071784365 42.96777185815786 20.879094967834575 H 0.0 **** 0.06
3333 H 86.60243802996406 41.81873228462526 20.28327713469612 H 0.0 **** 0.06
3334 H 85.28689724702815 42.35528993514924 19.21073893220195 H 0.0 **** 0.06
3335 H 84.9344028659404 41.27098686034517 20.578489822425105 H 0.0 **** 0.06
3336 C 63.738265642357476 111.68518820664775 107.90124185694084 C 0.0 **** -0.24
3337 H 64.54086205233125 111.99114211784874 107.23009040317413 H 0.0 **** 0.06
3338 H 64.14245474959489 111.52458525963849 108.90018022922062 H 0.0 **** 0.06
3339 H 63.293298232579104 110.75974327970286 107.53500044028723 H 0.0 **** 0.06
3340 H 62.97798970197164 112.46537150770106 107.9371245548197 H 0.0 **** 0.06
3341 C 108.50717222011059 118.84149537316625 120.60256603634755 C 0.0 **** -0.24
3342 H 107.7792070116148 118.79140776130401 119.79241421108108 H 0.0 **** 0.06
3343 H 108.35374677516666 118.00125531054613 121.28045789879322 H 0.0 **** 0.06
3344 H 108.37862609047119 119.77688471994298 121.14806009483232 H 0.0 **** 0.06
3345 H 109.5140091157958 118.79689706909778 120.18975200198656 H 0.0 **** 0.06
3346 C 103.24763654869292 11.722441035692952 110.02617990846227 C 0.0 **** -0.24
3347 H 104.21123778546712 11.73717397896246 110.53493096166713 H 0.0 **** 0.06
3348 H 102.45770745413182 11.52185573597069 110.75030327291529 H 0.0 **** 0.06
3349 H 103.2513486183804 10.94142168447462 109.2658148263601 H 0.0 **** 0.06
3350 H 103.07173598397424 12.68861423697308 109.55422826359211 H 0.0 **** 0.06
3351 C 67.07671189783046 117.42819383169225 61.80503642805073 C 0.0 **** -0.24
3352 H 67.52791737144652 117.7622809739072 62.73941561840718 H 0.0 **** 0.06
3353 H 66.13755444344734 117.95853177316744 61.6463605892871 H 0.0 **** 0.06
3354 H 66.88563516400094 116.35659271651659 61.85647342814525 H 0.0 **** 0.06
3355 H 67.75565486684897 117.6366024454934 60.97858417608268 H 0.0 **** 0.06
3356 C 109.21331881824375 52.11302585167033 111.47244081958752 C 0.0 **** -0.24
3357 H 110.06456956404486 52.79286941607984 111.49563398284522 H 0.0 **** 0.06
3358 H 108.28861906128839 52.68613063638895 111.53915903998416 H 0.0 **** 0.06
3359 H 109.27591579496635 51.4235109481416 112.31377478180048 H 0.0 **** 0.06
3360 H 109.22404202733742 51.548874700818146 110.53962434602272 H 0.0 **** 0.06
3361 C 52.51822159111681 1.8145212241138324 29.09583244059843 C 0.0 **** -0.24
3362 H 52.77313989198562 1.010513115389756 28.405189481732805 H 0.0 **** 0.06
3363 H 53.234524204225806 1.8281024196353997 29.91701156634622 H 0.0 **** 0.06
3364 H 51.51585766429508 1.6504215503886712 29.48952629392909 H 0.0 **** 0.06
3365 H 52.549951060687576 2.767996610844534 28.568511861137466 H 0.0 **** 0.06
3366 C 64.4985259795235 74.50769303049884 98.85388792837091 C 0.0 **** -0.24
3367 H 63.56246098696377 74.82699828389472 98.39592336908902 H 0.0 **** 0.06
3368 H 65.31686662893368 74.65545813227499 98.14827105022937 H 0.0 **** 0.06
3369 H 64.432047797439 73.4529683023083 99.11818586005228 H 0.0 **** 0.06
3370 H 64.68247237108018 75.09704889125386 99.75297275331252 H 0.0 **** 0.06
3371 C 131.8026105961867 129.36715290551396 95.58163470045729 C 0.0 **** -0.24
3372 H 131.68132630429713 129.73908106496788 94.56442449082105 H 0.0 **** 0.06
3373 H 132.85046075409224 129.12191396887962 95.75600210704943 H 0.0 **** 0.06
3374 H 131.19316432847236 128.4739166273532 95.71774218355327 H 0.0 **** 0.06
3375 H 131.4863076265774 130.13363754540453 96.28952297946053 H 0.0 **** 0.06
3376 C 72.78027279852023 47.9461191945137 97.35600050322631 C 0.0 **** -0.24
3377 H 72.92238318777335 47.68220285342835 98.40401952410863 H 0.0 **** 0.06
3378 H 72.37355108457524 48.95424696904996 97.28710329877174 H 0.0 **** 0.06
3379 H 72.08749395365051 47.24175650528309 96.8949801572 H 0.0 **** 0.06
3380 H 73.73896860028168 47.90454156880037 96.83845267989216 H 0.0 **** 0.06
3381 C 64.55953739725162 99.1458263363868 127.52560147656169 C 0.0 **** -0.24
3382 H 64.29245678635222 99.63144697754075 128.4641091191683 H 0.0 **** 0.06
3383 H 65.00854969053604 99.87737620089331 126.85312258477279 H 0.0 **** 0.06
3384 H 63.66330702440936 98.7300062363919 127.06318509345772 H 0.0 **** 0.06
3385 H 65.27268250301472 98.34567629924888 127.72049626274645 H 0.0 **** 0.06
3386 C 62.54767269207723 18.896652088491706 90.52842947841738 C 0.0 **** -0.24
3387 H 61.732753788654506 18.491219390767938 91.12883984650183 H 0.0 **** 0.06
3388 H 63.49390917287734 18.73916558874153 91.04629104094046 H 0.0 **** 0.06
3389 H 62.39020094037039 19.965301653749705 90.37635416510626 H 0.0 **** 0.06
3390 H 62.572211117595955 18.392263859514784 89.56299983630679 H 0.0 **** 0.06
3391 C 47.43075545081871 13.303177746821355 75.56509614876464 C 0.0 **** -0.24
3392 H 47.081896234884425 12.374939456004807 76.01850878896278 H 0.0 **** 0.06
3393 H 47.176454095741065 14.142071773352775 76.21315224833342 H 0.0 **** 0.06
3394 H 46.95256108898889 13.434301300734859 74.59457422080749 H 0.0 **** 0.06
3395 H 48.51248612210128 13.258595102328545 75.43412951526398 H 0.0 **** 0.06
3396 C 116.74861712140404 29.098780474545663 54.676265505564686 C 0.0 **** -0.24
3397 H 116.94044094378063 29.683435233903225 55.5750816272253 H 0.0 **** 0.06
3398 H 115.75029249666693 28.664701391916395 54.731104858807214 H 0.0 **** 0.06
3399 H 117.48801317219716 28.301484042478137 54.59577962653148 H 0.0 **** 0.06
3400 H 116.81603016254962 29.745672025080623 53.801726282288996 H 0.0 **** 0.06
3401 C 100.86165116663692 53.4121128429764 101.42854521939084 C 0.0 **** -0.24
3402 H 100.19185091388718 52.983925932137936 102.17483718029948 H 0.0 **** 0.06
3403 H 101.25356924398355 54.360745388789496 101.79427946267788 H 0.0 **** 0.06
3404 H 100.31273909705956 53.577526870533006 100.50165914955618 H 0.0 **** 0.06
3405 H 101.68698868162335 52.72408026621349 101.24487368932817 H 0.0 **** 0.06
3406 C 91.59623013598772 109.72327873618869 131.69745880631567 C 0.0 **** -0.24
3407 H 91.12567374458042 108.75139219240776 131.84398273069527 H 0.0 **** 0.06
3408 H 92.18859847069325 109.97530367223013 132.57759532626258 H 0.0 **** 0.06
3409 H 90.82734139836536 110.4803135335558 131.54626210484545 H 0.0 **** 0.06
3410 H 92.2447361476336 109.68346828739479 130.82204624018854 H 0.0 **** 0.06
3411 C 113.17056732615 77.15751697189721 28.098820970002464 C 0.0 **** -0.24
3412 H 113.3629691352327 78.12768094104567 28.55758834739453 H 0.0 **** 0.06
3413 H 112.7298616746113 76.48746255859118 28.838079887913466 H 0.0 **** 0.06
3414 H 114.10865248566506 76.7337616916882 27.738177338533603 H 0.0 **** 0.06
3415 H 112.48232841678424 77.28040001391548 27.262866425867514 H 0.0 **** 0.06
3416 C 92.60696497687346 5.035762206013942 25.70718254285748 C 0.0 **** -0.24
3417 H 93.56958295218884 4.905293543443349 26.200215564322775 H 0.0 **** 0.06
3418 H 91.90664709976771 5.508974186538694 26.39604420643127 H 0.0 **** 0.06
3419 H 92.2181756894137 4.063049785357919 25.405469914172954 H 0.0 **** 0.06
3420 H 92.73197710385483 5.665859239424094 24.826104908573257 H 0.0 **** 0.06
3421 C 107.28391272142966 74.17490920468563 126.39299813213519 C 0.0 **** -0.24
3422 H 108.22945825854339 74.67146777875263 126.17535099401819 H 0.0 **** 0.06
3423 H 106.61199941155905 74.28520661584159 125.54122404494608 H 0.0 **** 0.06
3424 H 106.83106698161146 74.62646924838512 127.27476524988097 H 0.0 **** 0.06
3425 H 107.46420730896966 73.11549213390549 126.57869533647904 H 0.0 **** 0.06
3426 C 38.72630173366008 130.52210943008822 1.524700062567149 C 0.0 **** -0.24
3427 H 37.65150909583281 130.44964272905202 1.361355705879987 H 0.0 **** 0.06
3428 H 39.22905700812791 130.68415045988553 0.5706917035092829 H 0.0 **** 0.06
3429 H 39.08892214729778 129.59871096567804 1.974365151822667 H 0.0 **** 0.06
3430 H 38.93629196134941 131.35809129731336 2.19251330175166 H 0.0 **** 0.06
3431 C 58.88219109738233 10.030482241909112 42.752862921255364 C 0.0 **** -0.24
3432 H 59.7920009104366 9.907241262258992 42.16559482741351 H 0.0 **** 0.06
3433 H 58.98841752523967 10.894541176547591 43.40918615743901 H 0.0 **** 0.06
3434 H 58.71398969116501 9.136406149314695 43.35345038516352 H 0.0 **** 0.06
3435 H 58.03481458970707 10.183525461106228 42.08408274921606 H 0.0 **** 0.06
3436 C 106.27975069080811 19.47850789603916 0.4169802105708982 C 0.0 **** -0.24
3437 H 106.56465153977474 20.520955128037485 0.26922564900146995 H 0.0 **** 0.06
3438 H 105.75181708866768 19.1180996941103 -0.4661189450692689 H 0.0 **** 0.06
3439 H 105.62927913203654 19.399873732724473 1.287494676050926 H 0.0 **** 0.06
3440 H 107.17462225062161 18.877099896434686 0.5769407368956649 H 0.0 **** 0.06
3441 C 48.05425656367812 90.71554357982781 34.95023660995048 C 0.0 **** -0.24
3442 H 47.88007023899871 89.6408957465114 34.99335473320161 H 0.0 **** 0.06
3443 H 48.99621443384973 90.91054365957643 34.438044867921235 H 0.0 **** 0.06
3444 H 48.10189292576821 91.11622268193737 35.963365500493296 H 0.0 **** 0.06
3445 H 47.239252498576604 91.19514801292601 34.40890770274842 H 0.0 **** 0.06
3446 C 69.71331632469642 53.33877084908755 30.548465913561017 C 0.0 **** -0.24
3447 H 69.62175389463886 54.16602508895869 29.84423169642065 H 0.0 **** 0.06
3448 H 70.08546488606494 52.45706864368367 30.02682645338922 H 0.0 **** 0.06
3449 H 68.73708548603607 53.120679624047455 30.98153707497471 H 0.0 **** 0.06
3450 H 70.4087056251544 53.61269874538186 31.341348156696938 H 0.0 **** 0.06
3451 C 109.66896138692957 116.81951814817421 62.00618705551996 C 0.0 **** -0.24
3452 H 109.81718559095452 116.86266519360555 60.92703600334636 H 0.0 **** 0.06
3453 H 110.20242147296489 115.9595769550177 62.41132968247119 H 0.0 **** 0.06
3454 H 108.60437759394159 116.72098376515743 62.22135778437669 H 0.0 **** 0.06
3455 H 110.04877705058152 117.73289989649555 62.4620750072945 H 0.0 **** 0.06
3456 C 35.058601203814646 75.4129770293504 120.52780400072066 C 0.0 **** -0.24
3457 H 35.37050779096086 75.75749699506989 121.5137935231815 H 0.0 **** 0.06
3458 H 35.558527229011986 76.00580640301192 119.76120344712353 H 0.0 **** 0.06
3459 H 33.97907656335451 75.52621792547347 120.42842034704579 H 0.0 **** 0.06
3460 H 35.32709572337518 74.36344727040017 120.40827981924912 H 0.0 **** 0.06
3461 C 6.300084597828459 1.3008078855062166 60.850745000306745 C 0.0 **** -0.24
3462 H 7.091620257049215 0.552160201752681 60.891745421668276 H 0.0 **** 0.06
3463 H 6.6864681958657 2.257689895122894 61.20251569613038 H 0.0 **** 0.06
3464 H 5.471415550333916 0.988128204550982 61.48546624068507 H 0.0 **** 0.06
3465 H 5.951577476968112 1.4045970475360043 59.823121204950496 H 0.0 **** 0.06
3466 C 132.55618085585616 27.868857470235312 129.32465393769965 C 0.0 **** -0.24
3467 H 131.48853970562038 28.032205595281027 129.17985131801288 H 0.0 **** 0.06
3468 H 132.86980987885818 28.332715238601608 130.2603851574783 H 0.0 **** 0.06
3469 H 133.1078085861604 28.31269003998306 128.4957609589399 H 0.0 **** 0.06
3470 H 132.75865049056213 26.798591329181022 129.36324783954706 H 0.0 **** 0.06
3471 C 77.57992411956442 55.78610327906938 101.81576108520059 C 0.0 **** -0.24
3472 H 76.65891398326673 56.17945424243227 102.2448675575802 H 0.0 **** 0.06
3473 H 77.73151927154821 54.76140923641759 102.15732830008697 H 0.0 **** 0.06
3474 H 78.42101990795479 56.403332297413755 102.13133717881672 H 0.0 **** 0.06
3475 H 77.50812275831207 55.79858488492573 100.72768898864028 H 0.0 **** 0.06
3476 C 51.86652954494281 93.2236364860936 33.78365143345536 C 0.0 **** -0.24
3477 H 52.634325039588816 92.89488215464996 33.08252464093147 H 0.0 **** 0.06
3478 H 52.33345805897204 93.77885966911776 34.597628138562015 H 0.0 **** 0.06
3479 H 51.3481850752284 92.35365034714448 34.187350839474576 H 0.0 **** 0.06
3480 H 51.153614406497184 93.86494132220787 33.266779971394854 H 0.0 **** 0.06
3481 C 134.75020564028685 68.47781303709218 56.75394998206981 C 0.0 **** -0.24
3482 H 135.73678877093838 68.25844798273158 56.34610963693467 H 0.0 **** 0.06
3483 H 134.56617025070292 67.84231858857947 57.62050573221032 H 0.0 **** 0.06
3484 H 133.99189190562947 68.28751166471164 55.99432261424302 H 0.0 **** 0.06
3485 H 134.70711893197188 69.52513809838149 57.054845093652204 H 0.0 **** 0.06
3486 C 130.93842036390694 34.70607310670573 105.44742925586212 C 0.0 **** -0.24
3487 H 130.13448280162243 33.982904047888525 105.31401665093597 H 0.0 **** 0.06
3488 H 131.4045448553546 34.55541822534221 106.42093020970987 H 0.0 **** 0.06
3489 H 130.53152123688506 35.71566144132524 105.39116601582793 H 0.0 **** 0.06
3490 H 131.68227696070443 34.569826920075684 104.66258634748482 H 0.0 **** 0.06
3491 C 18.43369254037073 46.880350292253866 54.04044190050267 C 0.0 **** -0.24
3492 H 19.13042560665913 47.662586794627 53.741399949949624 H 0.0 **** 0.06
3493 H 17.427487316761074 47.14754881804515 53.71630443733574 H 0.0 **** 0.06
3494 H 18.450266676030225 46.774169349051704 55.12483986148155 H 0.0 **** 0.06
3495 H 18.725648101728183 45.93749381977159 53.57723491048024 H 0.0 **** 0.06
3496 C 90.65340457400544 25.271457723114736 68.32803682044693 C 0.0 **** -0.24
3497 H 89.77834818243753 24.653010522081956 68.52915484125371 H 0.0 **** 0.06
3498 H 90.33313032691831 26.286271304284583 68.0899739925522 H 0.0 **** 0.06
3499 H 91.20531329847165 24.856315783987668 67.48421158197424 H 0.0 **** 0.06
3500 H 91.29585802663922 25.29026683187965 69.20855987820394 H 0.0 **** 0.06
3501 C 82.66745128994795 128.29263865706608 32.28556145664061 C 0.0 **** -0.24
3502 H 81.80902854317057 128.803872999155 32.72064520885368 H 0.0 **** 0.06
3503 H 82.38665842631043 127.27286249006654 32.020314313254346 H 0.0 **** 0.06
3504 H 83.48156740439673 128.2685028959893 33.01061147125699 H 0.0 **** 0.06
3505 H 82.9920555908175 128.82432632599725 31.391555139241518 H 0.0 **** 0.06
3506 C 36.5889394130378 1.5473113987139868 105.33000465875293 C 0.0 **** -0.24
3507 H 36.77075661766636 0.4729877161969398 105.36499333381505 H 0.0 **** 0.06
3508 H 37.52997378505991 2.069487022659189 105.16032278164315 H 0.0 **** 0.06
3509 H 36.15761577165028 1.8731626257371659 106.27718046841505 H 0.0 **** 0.06
3510 H 35.89688737931579 1.7721611793494958 104.51914427066473 H 0.0 **** 0.06
3511 C 53.91183373569254 52.59270647571279 83.16067238853941 C 0.0 **** -0.24
3512 H 53.53072638664452 51.61071896509773 82.87903110135757 H 0.0 **** 0.06
3513 H 53.798956746026874 53.27992660472995 82.32300761304748 H 0.0 **** 0.06
3514 H 54.96617079352444 52.50974030572408 83.42493562134693 H 0.0 **** 0.06
3515 H 53.35112876785831 52.96652793540723 84.01731905508875 H 0.0 **** 0.06
3516 C 42.20469112647152 94.05836180332938 105.98061807739296 C 0.0 **** -0.24
3517 H 41.7486594490331 93.38503314322719 106.70588537404302 H 0.0 **** 0.06
3518 H 42.773872845876355 94.82518767311439 106.50519626456139 H 0.0 **** 0.06
3519 H 41.42454530081898 94.52998540252202 105.38193552632 H 0.0 **** 0.06
3520 H 42.87094869587142 93.4925672918468 105.32942034793456 H 0.0 **** 0.06
3521 C 122.59896804618239 48.42981908348227 86.06206699237082 C 0.0 **** -0.24
3522 H 122.10340867619988 49.12704982671396 86.73826910939256 H 0.0 **** 0.06
3523 H 123.5574233273054 48.13105912510366 86.48710821876689 H 0.0 **** 0.06
3524 H 122.76293057741032 48.9131071029756 85.09804981505114 H 0.0 **** 0.06
3525 H 121.97080935550935 47.54918640882897 85.92463754002098 H 0.0 **** 0.06
3526 C 62.86291939070476 101.48176636258717 52.0666652790743 C 0.0 **** -0.24
3527 H 63.845547859340186 101.95352781989806 52.10243596360914 H 0.0 **** 0.06
3528 H 62.68608840466004 100.94096528667042 52.99689433954178 H 0.0 **** 0.06
3529 H 62.82401987749114 100.78580429382801 51.2284781257859 H 0.0 **** 0.06
3530 H 62.09689173108646 102.24689225056008 51.94064916182934 H 0.0 **** 0.06
3531 C 16.815375787363024 51.89705380208173 10.318487118429324 C 0.0 **** -0.24
3532 H 15.957337736044508 51.22589662647479 10.325818325439933 H 0.0 **** 0.06
3533 H 16.515629067394883 52.86469373313105 9.913925614674579 H 0.0 **** 0.06
3534 H 17.60390399369379 51.47237903085946 9.697215303173 H 0.0 **** 0.06
3535 H 17.18344233665286 52.02710424247317 11.335926028305433 H 0.0 **** 0.06
3536 C 29.87525654227369 97.38191614967259 37.12727635975466 C 0.0 **** -0.24
3537 H 29.932152493471904 97.70405718497383 38.16734419221325 H 0.0 **** 0.06
3538 H 30.88328085990807 97.2688090285969 36.72679056557206 H 0.0 **** 0.06
3539 H 29.333158995300067 98.1271765833543 36.54586414687901 H 0.0 **** 0.06
3540 H 29.352857602982127 96.42702062591648 37.07234065026853 H 0.0 **** 0.06
3541 C 82.82879014804944 11.950309753821678 72.38839505320277 C 0.0 **** -0.24
3542 H 83.0710653139244 12.97394108995277 72.10342193835106 H 0.0 **** 0.06
3543 H 83.51869582294101 11.615679930490177 73.16259016227372 H 0.0 **** 0.06
3544 H 82.91583638598169 11.300960870858368 71.51717461633012 H 0.0 **** 0.06
3545 H 81.80802021831411 11.91204961678607 72.76909701887644 H 0.0 **** 0.06
3546 C 60.840541462717056 46.39106194751366 111.48815933054635 C 0.0 **** -0.24
3547 H 61.43888943696237 47.145450068147056 110.97720499662717 H 0.0 **** 0.06
3548 H 61.25617743123371 45.4025372007182 111.29070131836295 H 0.0 **** 0.06
3549 H 59.813977902282545 46.43405037544778 111.12203860113772 H 0.0 **** 0.06
3550 H 60.852385166060685 46.58348696249118 112.56007924968884 H 0.0 **** 0.06
3551 C 102.63596971510015 40.955415794366445 63.919696486168974 C 0.0 **** -0.24
3552 H 102.08232744405444 41.891217857503506 63.99957026416007 H 0.0 **** 0.06
3553 H 103.48890814353018 41.095036633796326 63.25430923339175 H 0.0 **** 0.06
3554 H 101.98396125747945 40.18103513984309 63.518015588646605 H 0.0 **** 0.06
3555 H 102.9892013023732 40.65748423714791 64.90712411162521 H 0.0 **** 0.06
3556 C 99.4507487495121 82.07197259677984 132.16454212828648 C 0.0 **** -0.24
3557 H 99.28900943225311 82.76309359306008 132.99170125376185 H 0.0 **** 0.06
3558 H 100.44395243630507 82.23529726136252 131.74408209886923 H 0.0 **** 0.06
3559 H 98.69801978361106 82.24282507699802 131.39593070238232 H 0.0 **** 0.06
3560 H 99.37369501613622 81.04688838221192 132.5279126941645 H 0.0 **** 0.06
3561 C 56.695637781913604 63.21396905660038 128.3419630427148 C 0.0 **** -0.24
3562 H 57.42282252981042 62.492645270649746 127.96797047516006 H 0.0 **** 0.06
3563 H 55.69894698324589 62.77340601646904 128.31347215769736 H 0.0 **** 0.06
3564 H 56.717020346235415 64.10687629565405 127.71764622981009 H 0.0 **** 0.06
3565 H 56.944622671225574 63.48271797614393 129.3683107333737 H 0.0 **** 0.06
3566 C 85.13090826793899 29.15822535110044 79.1919165461642 C 0.0 **** -0.24
3567 H 85.60659023064 29.79466427178687 78.44513928738361 H 0.0 **** 0.06
3568 H 85.03750358675524 28.144920891666658 78.79843109074652 H 0.0 **** 0.06
3569 H 84.14116585928525 29.55056357431772 79.42582839080579 H 0.0 **** 0.06
3570 H 85.73919148442917 29.143027622382988 80.0959749482244 H 0.0 **** 0.06
3571 C 43.90738064976635 30.57594947345109 74.48760711553395 C 0.0 **** -0.24
3572 H 43.73867144820102 31.61398315502194 74.77375276317078 H 0.0 **** 0.06
3573 H 44.662956579156386 30.53289776700052 73.70305333455113 H 0.0 **** 0.06
3574 H 42.97591363578846 30.14441287696482 74.12011634454082 H 0.0 **** 0.06
3575 H 44.25153109527804 30.011656321550106 75.35526075896254 H 0.0 **** 0.06
3576 C 56.59153614752675 135.0433965400791 53.885976290502356 C 0.0 **** -0.24
3577 H 57.199304147693255 134.6519074606615 54.70120593960934 H 0.0 **** 0.06
3578 H 57.19702990514624 135.70552524713085 53.26689071000817 H 0.0 **** 0.06
3579 H 55.74778281291627 135.59861149108525 54.295607496267735 H 0.0 **** 0.06
3580 H 56.22089196809155 134.21589699883216 53.28013512889737 H 0.0 **** 0.06
3581 C 67.90984843085096 108.66561381505062 94.31268205933628 C 0.0 **** -0.24
3582 H 67.59256275377138 108.32002384735421 93.32835412770828 H 0.0 **** 0.06
3583 H 67.77073766672493 109.74539491001133 94.38021815820997 H 0.0 **** 0.06
3584 H 68.96171234316034 108.4236443473805 94.46066547477005 H 0.0 **** 0.06
3585 H 67.31111555942869 108.17385443193535 95.07972296143271 H 0.0 **** 0.06
3586 C 111.3254160931983 17.777854795098108 94.95908874891698 C 0.0 **** -0.24
3587 H 111.68794822048054 18.782905701615334 94.74439088453055 H 0.0 **** 0.06
3588 H 110.6288446126888 17.814279023318562 95.79708966871256 H 0.0 **** 0.06
3589 H 112.16844272067908 17.134886003998446 95.21363803246061 H 0.0 **** 0.06
3590 H 110.81772130378127 17.379994641165354 94.08028139119304 H 0.0 **** 0.06
3591 C 96.77478267707129 22.145938271830005 6.069828277793022 C 0.0 **** -0.24
3592 H 96.13356657969045 22.854643723845925 6.59528010844997 H 0.0 **** 0.06
3593 H 97.81385533608196 22.322934448598403 6.346069816641432 H 0.0 **** 0.06
3594 H 96.65609484289294 22.27887856870086 4.994120987411122 H 0.0 **** 0.06
3595 H 96.49329509198587 21.129199702763117 6.34386565269665 H 0.0 **** 0.06
3596 C 82.16666442335372 123.98225929588637 120.48234089140573 C 0.0 **** -0.24
3597 H 82.37706918702622 122.98591592973966 120.09304047579388 H 0.0 **** 0.06
3598 H 82.90031807118612 124.68746288381439 120.09184212832079 H 0.0 **** 0.06
3599 H 82.22026356994769 123.96567547682963 121.57101953206876 H 0.0 **** 0.06
3600 H 81.16711028010008 124.28935192337474 120.17353233264747 H 0.0 **** 0.06
3601 C 27.38648067872424 39.8823738248324 67.64204918694367 C 0.0 **** -0.24
3602 H 28.208001943096292 40.59850916624674 67.63792230824856 H 0.0 **** 0.06
3603 H 27.28049034538435 39.455569450724255 68.63974812430672 H 0.0 **** 0.06
3604 H 27.59436223992475 39.08681060033362 66.92614102242084 H 0.0 **** 0.06
3605 H 26.461972347581764 40.38871458046128 67.36304831702762 H 0.0 **** 0.06
3606 C 29.739095936553355 99.6909197472891 84.63020324001594 C 0.0 **** -0.24
3607 H 30.69121516456795 99.9506417513603 84.16684425905592 H 0.0 **** 0.06
3608 H 29.76496434815124 99.95811595606187 85.68771786385528 H 0.0 **** 0.06
3609 H 29.568230698657146 98.61874167388463 84.53119145974308 H 0.0 **** 0.06
3610 H 28.934470423426262 100.23504418649412 84.13739966974622 H 0.0 **** 0.06
3611 C 81.0527635701994 132.3901627233076 72.47401848071333 C 0.0 **** -0.24
3612 H 81.0792268529438 131.8670345871584 73.42913189821195 H 0.0 **** 0.06
3613 H 80.01757615080783 132.52205370087134 72.1604410528915 H 0.0 **** 0.06
3614 H 81.58794614549922 131.8060647998663 71.72514712826148 H 0.0 **** 0.06
3615 H 81.52760342439382 133.36533989478986 72.58081570536817 H 0.0 **** 0.06
3616 C 71.90938335534588 15.809527719728443 117.40754081939014 C 0.0 **** -0.24
3617 H 71.7461659536244 14.859211626918224 116.8985521179772 H 0.0 **** 0.06
3618 H 71.98262890948047 15.638306722422115 118.48130033592383 H 0.0 **** 0.06
3619 H 71.07367213046132 16.478540027848048 117.20203084951436 H 0.0 **** 0.06
3620 H 72.8332545219271 16.260401373289362 117.04655046870982 H 0.0 **** 0.06
3621 C 39.87950816317458 117.99566979951055 51.97348524075687 C 0.0 **** -0.24
3622 H 39.352802193535325 118.26080977113463 51.05575665114253 H 0.0 **** 0.06
3623 H 40.53525621037855 118.81683088361905 52.26387990203705 H 0.0 **** 0.06
3624 H 40.47288326845302 117.0971524073461 51.805897905473245 H 0.0 **** 0.06
3625 H 39.15521474269565 117.80990651191615 52.76685786732128 H 0.0 **** 0.06
3626 C 4.49982819095311 129.63431742847735 107.08216274344329 C 0.0 **** -0.24
3627 H 4.654835912191686 128.96755422387074 107.93063579306875 H 0.0 **** 0.06
3628 H 3.450730210132292 129.60843716892302 106.78630173984914 H 0.0 **** 0.06
3629 H 5.1211444117403175 129.30911539602553 106.24667609860609 H 0.0 **** 0.06
3630 H 4.773543371579876 130.65074679229684 107.36470725286148 H 0.0 **** 0.06
3631 C 122.15539802112158 51.13439204555483 107.97643933167609 C 0.0 **** -0.24
3632 H 121.75882475265718 50.49077591630568 108.76223512178802 H 0.0 **** 0.06
3633 H 122.24710924253668 50.564061945036784 107.05203915057388 H 0.0 **** 0.06
3634 H 123.13736303460132 51.50612752028282 108.27292308319852 H 0.0 **** 0.06
3635 H 121.48015664790785 51.97584859809186 107.82055145803889 H 0.0 **** 0.06
3636 C 76.1287322684083 66.4126101457885 31.2046832731964 C 0.0 **** -0.24
3637 H 75.69768192175522 67.12798919600263 31.90453214302994 H 0.0 **** 0.06
3638 H 77.1983258775962 66.59875597582234 31.108208936229204 H 0.0 **** 0.06
3639 H 75.65081118144215 66.52332524273763 30.231732284398824 H 0.0 **** 0.06
3640 H 75.9675890683423 65.40057684837798 31.57617962556361 H 0.0 **** 0.06
3641 C 1.157660448847487 129.89463219328064 62.39011793182466 C 0.0 **** -0.24
3642 H 0.5576077937793933 130.79598645725008 62.51416370553477 H 0.0 **** 0.06
3643 H 0.5974767055988721 129.03311287837852 62.7553545218865 H 0.0 **** 0.06
3644 H 2.0836792786410996 129.99383918598102 62.956602855302776 H 0.0 **** 0.06
3645 H 1.3904927503837285 129.7556711676574 61.33462373914786 H 0.0 **** 0.06
3646 C 65.98434722275584 51.39353282229109 59.52474615801009 C 0.0 **** -0.24
3647 H 66.20749872232989 52.4310229342226 59.27564829824587 H 0.0 **** 0.06
3648 H 64.93153899780253 51.19191844277083 59.32592320256458 H 0.0 **** 0.06
3649 H 66.19564404232455 51.22059479619804 60.57988176257413 H 0.0 **** 0.06
3650 H 66.60276741594924 50.73304339825168 58.91748079796861 H 0.0 **** 0.06
3651 C 83.25954410403159 111.97527520527063 45.623168067257694 C 0.0 **** -0.24
3652 H 84.00123891939941 111.81434930714298 46.404352829357435 H 0.0 **** 0.06
3653 H 82.64187286259815 111.0820577340319 45.51774530826458 H 0.0 **** 0.06
3654 H 83.76468371337322 112.18160815007766 44.67917824329862 H 0.0 **** 0.06
3655 H 82.62830583158008 112.82377143626528 45.89092270085388 H 0.0 **** 0.06
3656 C 56.44023251723026 16.66117462072421 120.45578687292101 C 0.0 **** -0.24
3657 H 55.56463402371003 16.01506159747501 120.40243662259127 H 0.0 **** 0.06
3658 H 56.43965271677202 17.19529264197999 121.4056677284646 H 0.0 **** 0.06
3659 H 56.41325036014838 17.378561215832462 119.63519225431594 H 0.0 **** 0.06
3660 H 57.343566403559095 16.054853629008335 120.37952502622824 H 0.0 **** 0.06
3661 C 14.754811284189486 101.3173289279246 116.00327478801285 C 0.0 **** -0.24
3662 H 14.567951267481703 102.29077961857776 116.455223997139 H 0.0 **** 0.06
3663 H 13.840573466965793 100.72458732053829 116.02542522733921 H 0.0 **** 0.06
3664 H 15.535980958130438 100.80143126571966 116.56242829774033 H 0.0 **** 0.06
3665 H 15.076974634110968 101.45257210223139 114.97005593800961 H 0.0 **** 0.06
3666 C 27.4297953406558 24.017699632869153 33.539058814770385 C 0.0 **** -0.24
3667 H 26.999441533847552 24.50561394307732 34.41400299622987 H 0.0 **** 0.06
3668 H 26.632974890991754 23.58067025619394 32.93769907949181 H 0.0 **** 0.06
3669 H 28.114113129422357 23.232259218709885 33.86220066031032 H 0.0 **** 0.06
3670 H 27.974276465270435 24.751893847630782 32.94553105074314 H 0.0 **** 0.06
3671 C 120.38277925899702 53.06913031495577 29.039374403122963 C 0.0 **** -0.24
3672 H 120.6026576583389 53.651409111751065 29.935453115299765 H 0.0 **** 0.06
3673 H 120.52646777175983 52.009117922133726 29.251686574204086 H 0.0 **** 0.06
3674 H 121.05303143490973 53.373786216394734 28.23561021900059 H 0.0 **** 0.06
3675 H 119.3497577118776 53.24296928599654 28.738592847446796 H 0.0 **** 0.06
3676 C 112.83465099526677 94.04535395903622 12.011623136524094 C 0.0 **** -0.24
3677 H 113.72401781600712 94.12522060841447 12.635915529197984 H 0.0 **** 0.06
3678 H 112.83517602491699 93.08334053009435 11.498582226318323 H 0.0 **** 0.06
3679 H 112.83466446330976 94.85027414383394 11.275444734912082 H 0.0 **** 0.06
3680 H 111.94430641932806 94.1248716889465 12.635803041160973 H 0.0 **** 0.06
3681 C 6.016438320486827 27.420480988326204 68.64982274986097 C 0.0 **** -0.24
3682 H 6.833277514295872 26.99496368321025 69.23190931613556 H 0.0 **** 0.06
3683 H 5.561038834966581 28.238195284205098 69.20728004919077 H 0.0 **** 0.06
3684 H 5.269196946769739 26.651069884611367 68.4561195371541 H 0.0 **** 0.06
3685 H 6.403391423267152 27.796433184529633 67.70294193181745 H 0.0 **** 0.06
3686 C 48.286204148346314 117.00236847706518 136.49195667097476 C 0.0 **** -0.24
3687 H 49.330494272909164 116.70419042024454 136.40783787965705 H 0.0 **** 0.06
3688 H 47.728672337353316 116.61595049514833 135.63873132722117 H 0.0 **** 0.06
3689 H 48.219106825559095 118.08957397716546 136.5086644887649 H 0.0 **** 0.06
3690 H 47.866580425844404 116.59763409599557 137.41328837235713 H 0.0 **** 0.06
3691 C 31.70373117810726 49.178802851653955 54.306455819675676 C 0.0 **** -0.24
3692 H 32.17882939488416 48.31982769134967 54.7802800682729 H 0.0 **** 0.06
3693 H 32.02964500894075 50.093063996241 54.80229832420275 H 0.0 **** 0.06
3694 H 30.621082678366434 49.08625535450528 54.38799239639087 H 0.0 **** 0.06
3695 H 31.986300493108715 49.21493102054717 53.25433301316798 H 0.0 **** 0.06
3696 C 44.15741375643276 62.47666545619164 0.7660955609404709 C 0.0 **** -0.24
3697 H 43.92424597613317 63.41630870722592 1.2667495351068396 H 0.0 **** 0.06
3698 H 43.874660807329406 62.54445711201191 -0.28442484565522363 H 0.0 **** 0.06
3699 H 43.60490727869602 61.665225018358726 1.2401304583072488 H 0.0 **** 0.06
3700 H 45.22705153178051 62.28017536409976 0.8437406874999738 H 0.0 **** 0.06
3701 C 65.80826597889632 21.379978402699074 14.821706239921639 C 0.0 **** -0.24
3702 H 65.57673990751267 20.91563342512238 13.862703883739385 H 0.0 **** 0.06
3703 H 65.86796230947591 20.612063533634 15.592197063169692 H 0.0 **** 0.06
3704 H 65.02395796819667 22.093080700844382 15.077864731373126 H 0.0 **** 0.06
3705 H 66.7633052287857 21.900186364489187 14.751472711622881 H 0.0 **** 0.06
3706 C 25.78622012278346 133.5722651987041 51.08868570905031 C 0.0 **** -0.24
3707 H 26.285533299153286 134.30994704800048 50.46054249239049 H 0.0 **** 0.06
3708 H 24.79656567696845 133.36112019559215 50.682197111798644 H 0.0 **** 0.06
3709 H 25.687192669925174 133.96484399325686 52.10140362697747 H 0.0 **** 0.06
3710 H 26.374678527070486 132.6550901611679 51.10996272823532 H 0.0 **** 0.06
3711 C 59.07086606185999 84.88319471444663 130.87569920133615 C 0.0 **** -0.24
3712 H 58.488095334045966 85.05713561227378 131.78074005411784 H 0.0 **** 0.06
3713 H 59.97457026582332 84.32686558880724 131.12748829180953 H 0.0 **** 0.06
3714 H 59.3447564366311 85.83884655721056 130.43020215602007 H 0.0 **** 0.06
3715 H 58.4758445931342 84.30825566462323 130.16583398760235 H 0.0 **** 0.06
3716 C 27.523304477886256 5.257032212268257 136.09900162951988 C 0.0 **** -0.24
3717 H 27.480779521852156 4.934250060553779 135.0592462133357 H 0.0 **** 0.06
3718 H 26.514166663840797 5.288989902926232 136.51031131958757 H 0.0 **** 0.06
3719 H 27.969635139283668 6.249540159168191 136.15352629053416 H 0.0 **** 0.06
3720 H 28.12775465980917 4.5542809086368266 136.6726362281216 H 0.0 **** 0.06
3721 C 3.846832663001152 121.55190676131696 126.78761879353861 C 0.0 **** -0.24
3722 H 3.568428290379302 122.44190857434356 126.22375993325934 H 0.0 **** 0.06
3723 H 2.955339260868243 121.10874104738679 127.23077531207294 H 0.0 **** 0.06
3724 H 4.547440463299068 121.82646165383022 127.57716641921058 H 0.0 **** 0.06
3725 H 4.318422209181904 120.83110462224153 126.1193780761163 H 0.0 **** 0.06
3726 C 103.08148125927517 111.7068961706822 119.8696164257083 C 0.0 **** -0.24
3727 H 103.81776038589894 110.91420128369361 119.737132758576 H 0.0 **** 0.06
3728 H 102.57488440488532 111.57628727856513 120.82568650202096 H 0.0 **** 0.06
3729 H 102.35237048861538 111.66342484523463 119.06155286777755 H 0.0 **** 0.06
3730 H 103.58356145822756 112.67463420490537 119.8542975880374 H 0.0 **** 0.06
3731 C 94.40267234457158 133.01182292838365 59.127539890858046 C 0.0 **** -0.24
3732 H 95.29579378577456 133.37574614874356 59.63725562227148 H 0.0 **** 0.06
3733 H 93.82422764502468 132.38860030885797 59.809897115287654 H 0.0 **** 0.06
3734 H 94.69628355849468 132.4230068833939 58.258084764144385 H 0.0 **** 0.06
3735 H 93.79794966898366 133.8589642384187 58.805505577067265 H 0.0 **** 0.06
3736 C 38.447482051196985 59.51622103604899 0.6300267675999862 C 0.0 **** -0.24
3737 H 38.36968866711088 60.393248667276 -0.012905427854434492 H 0.0 **** 0.06
3738 H 37.87795915623832 58.69491041040058 0.19409485873080712 H 0.0 **** 0.06
3739 H 38.04897022623089 59.751947124329234 1.6161249050446713 H 0.0 **** 0.06
3740 H 39.494678375540516 59.22477037051493 0.7210240774959971 H 0.0 **** 0.06
3741 C 47.68037842750985 104.21587883476532 125.41027402437155 C 0.0 **** -0.24
3742 H 46.78349637259534 104.21159630714388 126.02953914710245 H 0.0 **** 0.06
3743 H 47.7293603073897 103.28938560689421 124.8371429834879 H 0.0 **** 0.06
3744 H 48.56087306777792 104.29603289012384 126.04666503013229 H 0.0 **** 0.06
3745 H 47.646882690691655 105.06427954185146 124.72724378580524 H 0.0 **** 0.06
3746 C 33.68512021445712 133.87844598064453 16.490291710780134 C 0.0 **** -0.24
3747 H 34.038293944728785 134.25260790556712 15.528957081904444 H 0.0 **** 0.06
3748 H 34.5344024413636 133.52866372384744 17.077316530927646 H 0.0 **** 0.06
3749 H 32.99101111950417 133.05446993827405 16.325916861438564 H 0.0 **** 0.06
3750 H 33.1774103045897 134.6805383898622 17.02645353242776 H 0.0 **** 0.06
3751 C 38.19362259158893 127.39249230920646 106.54120749175246 C 0.0 **** -0.24
3752 H 38.11546180348531 127.669451074911 107.59255747984002 H 0.0 **** 0.06
3753 H 37.370417511043364 126.72753061145468 106.2787052486027 H 0.0 **** 0.06
3754 H 39.141643781793114 126.88318585804394 106.3700006189481 H 0.0 **** 0.06
3755 H 38.14596110435102 128.29026216929628 105.92550976742496 H 0.0 **** 0.06
3756 C 80.65233866279922 117.33656740290579 80.2834143248233 C 0.0 **** -0.24
3757 H 79.82967127832 116.65277594461682 80.07098141357596 H 0.0 **** 0.06
3758 H 80.42652811010197 117.90467766019489 81.18601135920153 H 0.0 **** 0.06
3759 H 80.78091963955427 118.02037010390785 79.44502491051924 H 0.0 **** 0.06
3760 H 81.56873291498135 116.76585822754956 80.43145027018628 H 0.0 **** 0.06
3761 C 134.20789958989005 134.0804129418556 72.86728995012959 C 0.0 **** -0.24
3762 H 134.89141425276702 134.77438699587643 72.37921953618604 H 0.0 **** 0.06
3763 H 133.1868262532402 134.29202957599713 72.55064554141381 H 0.0 **** 0.06
3764 H 134.2839397908678 134.19644917634074 73.94863196937109 H 0.0 **** 0.06
3765 H 134.46922716663343 133.05812778486535 72.59301446873599 H 0.0 **** 0.06
3766 C 105.81842450888954 27.90654815470802 85.99891822634133 C 0.0 **** -0.24
3767 H 105.9538556748759 27.27445352081429 85.12130394064963 H 0.0 **** 0.06
3768 H 106.33595656460325 28.85483448058912 85.84690910096583 H 0.0 **** 0.06
3769 H 106.22897411794294 27.404096565068755 86.87470785657261 H 0.0 **** 0.06
3770 H 104.75500831130603 28.092701682829386 86.1513450813631 H 0.0 **** 0.06
3771 C 83.15246130643632 75.58272055913517 3.142429358125412 C 0.0 **** -0.24
3772 H 83.55291160477007 76.59663654132316 3.1508565707787 H 0.0 **** 0.06
3773 H 82.94476682202898 75.26497071954034 4.1640687713679085 H 0.0 **** 0.06
3774 H 83.88061758616249 74.90777785751231 2.692151818694242 H 0.0 **** 0.06
3775 H 82.23067337915391 75.56207544772855 2.5606657635950683 H 0.0 **** 0.06
3776 C 116.21736125889973 34.383644488672545 128.55185696402813 C 0.0 **** -0.24
3777 H 117.08015885199936 34.09080797784262 129.15141448793304 H 0.0 **** 0.06
3778 H 116.55860986553151 34.87200885942048 127.63885547928004 H 0.0 **** 0.06
3779 H 115.59637598997796 35.07323489809496 129.12324422629413 H 0.0 **** 0.06
3780 H 115.63625289970193 33.49827455568772 128.29638845410668 H 0.0 **** 0.06
3781 C 105.72653200027014 19.94704670028716 96.38596656675352 C 0.0 **** -0.24
3782 H 106.51447288775182 19.639078752278067 95.69816063938958 H 0.0 **** 0.06
3783 H 106.17424854458227 20.30073397138017 97.31516639008183 H 0.0 **** 0.06
3784 H 105.0761159184238 19.09771737754204 96.59567993486067 H 0.0 **** 0.06
3785 H 105.1436065765181 20.750000362287892 95.93440544718612 H 0.0 **** 0.06
3786 C 132.2942827292936 133.1551494344792 21.8979966726327 C 0.0 **** -0.24
3787 H 131.45086392629608 132.46752866585047 21.839803561373742 H 0.0 **** 0.06
3788 H 132.83747691251975 133.14441236650515 20.952802048171748 H 0.0 **** 0.06
3789 H 132.959689985348 132.8466031568573 22.704573054609597 H 0.0 **** 0.06
3790 H 131.92763576102658 134.1629531414461 22.094592147291337 H 0.0 **** 0.06
3791 C 104.07813217948024 114.32425416024816 81.40107360298867 C 0.0 **** -0.24
3792 H 103.84560516715237 115.25423080515603 80.88179168302395 H 0.0 **** 0.06
3793 H 104.601372269541 113.64987819557032 80.72176438228911 H 0.0 **** 0.06
3794 H 103.15299261383257 113.85496947597309 81.73692292675167 H 0.0 **** 0.06
3795 H 104.71180893741132 114.53731703233126 82.26180237946056 H 0.0 **** 0.06
3796 C 82.08639996604379 106.88899410392764 93.13257234433905 C 0.0 **** -0.24
3797 H 82.65445788930874 106.64199812425232 92.23534089573747 H 0.0 **** 0.06
3798 H 81.60347754488743 105.98983881884243 93.51599091219862 H 0.0 **** 0.06
3799 H 81.32748066351368 107.63274743530428 92.88821078773043 H 0.0 **** 0.06
3800 H 82.75932299844294 107.29111886113469 93.88965841324068 H 0.0 **** 0.06
3801 C 125.60372890450986 29.257943997504277 58.31035552920031 C 0.0 **** -0.24
3802 H 126.31906826219412 28.89727643414362 59.049075060501195 H 0.0 **** 0.06
3803 H 124.66695519496858 29.514496778698025 58.8071219168574 H 0.0 **** 0.06
3804 H 125.42161679975436 28.477468299198286 57.57110661330586 H 0.0 **** 0.06
3805 H 126.00633993357064 30.140636157999964 57.81484073683373 H 0.0 **** 0.06
3806 C 69.63366634001949 93.5329874386517 48.95409725928505 C 0.0 **** -0.24
3807 H 69.22811994269966 93.94212295959304 49.87896063656552 H 0.0 **** 0.06
3808 H 70.05826215258747 94.33970118707396 48.35646493756974 H 0.0 **** 0.06
3809 H 68.83846297191155 93.04369420976971 48.39264133958386 H 0.0 **** 0.06
3810 H 70.41201388081936 92.80725640549917 49.189034733367805 H 0.0 **** 0.06
3811 C 108.35534729962214 59.48222079566486 13.010963480959788 C 0.0 **** -0.24
3812 H 109.41451274624623 59.38793860465931 12.768896252118736 H 0.0 **** 0.06
3813 H 107.76535297152202 58.944937232009565 12.268338990320927 H 0.0 **** 0.06
3814 H 108.07441627698148 60.5358564623658 13.005695619367202 H 0.0 **** 0.06
3815 H 108.16969587284683 59.06124648283017 13.998664952837771 H 0.0 **** 0.06
3816 C 130.30065520982888 5.3568527563243435 42.983416850095296 C 0.0 **** -0.24
3817 H 130.42753990762665 4.850818890657649 43.94080187839114 H 0.0 **** 0.06
3818 H 131.13427009938937 5.1069958869487095 42.327899669869055 H 0.0 **** 0.06
3819 H 130.27441853082965 6.434863310547428 43.143688373147825 H 0.0 **** 0.06
3820 H 129.366623698674 5.035325921966262 42.52420924319523 H 0.0 **** 0.06
3821 C 101.40223373880548 44.43307479465546 5.539079444602315 C 0.0 **** -0.24
3822 H 101.75863813243268 44.79228549078112 4.573955815812518 H 0.0 **** 0.06
3823 H 102.18105823152075 43.83628592704089 6.0152701446650845 H 0.0 **** 0.06
3824 H 100.51357558693508 43.81938814527998 5.391443242392068 H 0.0 **** 0.06
3825 H 101.15523770166965 45.283158157785486 6.174997908221311 H 0.0 **** 0.06
3826 C 104.39702604502006 53.74294546238161 108.73036871132939 C 0.0 **** -0.24
3827 H 104.14414013206982 52.93903030096271 109.42213906439987 H 0.0 **** 0.06
3828 H 105.40803158738586 53.59129144610557 108.35215327271433 H 0.0 **** 0.06
3829 H 104.34315236329329 54.69989076801102 109.25052774636272 H 0.0 **** 0.06
3830 H 103.69256833633989 53.74151198222876 107.89888009321757 H 0.0 **** 0.06
3831 C 15.463393085070557 117.31455324489872 61.858192148950536 C 0.0 **** -0.24
3832 H 14.697823767788499 117.31067698910823 62.634538521658556 H 0.0 **** 0.06
3833 H 16.03416965773571 118.24227339535156 61.91590320670707 H 0.0 **** 0.06
3834 H 14.988308315428618 117.2400094351861 60.88069602017657 H 0.0 **** 0.06
3835 H 16.1320485341789 116.4662150016743 62.003523384007934 H 0.0 **** 0.06
3836 C 81.86995152932411 5.737497279325964 10.775098593562745 C 0.0 **** -0.24
3837 H 82.6210015864763 6.0398178965224645 11.504132931029176 H 0.0 **** 0.06
3838 H 81.44877056533463 6.623360358922298 10.29911824784125 H 0.0 **** 0.06
3839 H 81.07696819712265 5.184309435463234 11.278405367443042 H 0.0 **** 0.06
3840 H 82.3322592198731 5.103633701305739 10.018997685121747 H 0.0 **** 0.06
3841 C 124.40257502391668 131.59746126451103 44.1745047430161 C 0.0 **** -0.24
3842 H 124.10821419633359 130.74282615894552 43.565746515348636 H 0.0 **** 0.06
3843 H 123.59037534818513 132.32408883759902 44.1969351073051 H 0.0 **** 0.06
3844 H 125.29208329493132 132.0597689721613 43.745819882189416 H 0.0 **** 0.06
3845 H 124.61997281092576 131.26357607321023 45.1886757863578 H 0.0 **** 0.06
3846 C 7.4707458204824775 15.089932083472313 46.95591238330944 C 0.0 **** -0.24
3847 H 7.374400185885747 15.890509728727686 47.69075461922051 H 0.0 **** 0.06
3848 H 8.478794439569867 14.678767195973975 46.99804820328515 H 0.0 **** 0.06
3849 H 7.280528972410366 15.488030269841069 45.9595252013231 H 0.0 **** 0.06
3850 H 6.748316390834788 14.30471071418227 47.17812662862319 H 0.0 **** 0.06
3851 C 80.66009250558598 66.81415867649132 16.006414602541497 C 0.0 **** -0.24
3852 H 79.71469942502915 67.05724652627968 16.492120597265284 H 0.0 **** 0.06
3853 H 81.39272856177395 67.58987639816453 16.2297764174412 H 0.0 **** 0.06
3854 H 80.50937320227361 66.75488556648116 14.928411141499225 H 0.0 **** 0.06
3855 H 81.02116103868046 65.85444736058794 16.374936956979695 H 0.0 **** 0.06
3856 C 102.13219314319264 89.01552138419783 108.22792776940528 C 0.0 **** -0.24
3857 H 101.54225612498897 89.67643880295462 107.59222691097438 H 0.0 **** 0.06
3858 H 101.47452078474686 88.50497718296059 108.93117220245836 H 0.0 **** 0.06
3859 H 102.8679117337067 89.60267381020566 108.77681319378732 H 0.0 **** 0.06
3860 H 102.64416692831298 88.27928421050463 107.60798684706657 H 0.0 **** 0.06
3861 C 73.3949618036105 94.93337382958046 124.47727285308613 C 0.0 **** -0.24
3862 H 74.28733917656206 95.34435039645602 124.94882552706218 H 0.0 **** 0.06
3863 H 73.67245271822435 94.43585249337615 123.54746512077352 H 0.0 **** 0.06
3864 H 72.6936011235174 95.73952287829427 124.26329401102213 H 0.0 **** 0.06
3865 H 72.9278406787401 94.21351480578528 125.1496201729434 H 0.0 **** 0.06
3866 C 19.542573513605618 119.3236428763007 49.27295189360649 C 0.0 **** -0.24
3867 H 19.52812220895879 118.97914725076757 50.307065037163824 H 0.0 **** 0.06
3868 H 20.574962175195083 119.42015051193063 48.93659940373436 H 0.0 **** 0.06
3869 H 19.04544036382282 120.29141692301262 49.20643054295334 H 0.0 **** 0.06
3870 H 19.02126481316384 118.60308244737848 48.64209453390106 H 0.0 **** 0.06
3871 C 7.166425903838245 42.16024094145433 87.99268123819759 C 0.0 **** -0.24
3872 H 7.042240540330596 41.173497501796646 87.54729667235688 H 0.0 **** 0.06
3873 H 6.679026252311587 42.18150649205131 88.968567257524 H 0.0 **** 0.06
3874 H 6.714904279323662 42.9108916179851 87.34406668101055 H 0.0 **** 0.06
3875 H 8.228356710722295 42.37339693363168 88.11275005426245 H 0.0 **** 0.06
3876 C 119.03811898174143 133.94457597704405 31.577512599126777 C 0.0 **** -0.24
3877 H 119.13903309318923 134.65743105310474 32.395820022103294 H 0.0 **** 0.06
3878 H 119.32558879095707 132.95184319048673 31.923689981696924 H 0.0 **** 0.06
3879 H 119.68542612599836 134.24361124954834 30.753182312449553 H 0.0 **** 0.06
3880 H 118.00285203901325 133.9257964156247 31.238653197477674 H 0.0 **** 0.06
3881 C 36.606186653098305 135.97553356914864 15.522049080439103 C 0.0 **** -0.24
3882 H 37.29258248501576 135.25876958671424 15.070529149828857 H 0.0 **** 0.06
3883 H 37.01458342403873 136.98241126835552 15.422196428383558 H 0.0 **** 0.06
3884 H 36.47719794600536 135.73892732382214 16.577827192648243 H 0.0 **** 0.06
3885 H 35.64249805331879 135.9222048727792 15.016940846050773 H 0.0 **** 0.06
3886 C 62.638087907768096 125.26755559961873 121.33149481769578 C 0.0 **** -0.24
3887 H 62.38029188688611 125.60397300063343 120.32750797334165 H 0.0 **** 0.06
3888 H 62.0018368365391 125.7726139338005 122.05930096272208 H 0.0 **** 0.06
3889 H 63.682663685854195 125.50355381202515 121.53576515483417 H 0.0 **** 0.06
3890 H 62.488215651165135 124.19029433098449 121.40268136051361 H 0.0 **** 0.06
3891 C 46.61201089473373 111.62131227297724 62.72052048100791 C 0.0 **** -0.24
3892 H 46.062045045385275 112.53833477613315 62.931627914463704 H 0.0 **** 0.06
3893 H 47.64255650490645 111.73046074621627 63.05767088524928 H 0.0 **** 0.06
3894 H 46.59762190307133 111.42857112738616 61.64796798715301 H 0.0 **** 0.06
3895 H 46.143668406951846 110.78837752274907 63.24516902123571 H 0.0 **** 0.06
3896 C 107.20316451036359 0.30555101777130744 55.89027404332471 C 0.0 **** -0.24
3897 H 106.98011820421135 -0.6872530528009975 55.50128635638072 H 0.0 **** 0.06
3898 H 107.33719586947001 0.9995386275929263 55.059922371593686 H 0.0 **** 0.06
3899 H 108.11862804879229 0.2657841778891452 56.48243219131645 H 0.0 **** 0.06
3900 H 106.3786972036745 0.643420003143973 56.51820658376519 H 0.0 **** 0.06
3901 C 115.2559261560067 95.54879027514505 65.21250647530411 C 0.0 **** -0.24
3902 H 115.20306280847171 96.6356415376813 65.13572140877642 H 0.0 **** 0.06
3903 H 116.26376633887799 95.25408336583314 65.50632632371807 H 0.0 **** 0.06
3904 H 115.01302371753366 95.10431213116891 64.24818310025748 H 0.0 **** 0.06
3905 H 114.54320435218278 95.20392641856188 65.96144679289046 H 0.0 **** 0.06
3906 C 28.464581248324976 129.4292207783785 41.46102564045168 C 0.0 **** -0.24
3907 H 27.68779314806244 129.18700922973312 42.186631522811155 H 0.0 **** 0.06
3908 H 28.017560487020717 129.52977122908123 40.47175412536967 H 0.0 **** 0.06
3909 H 29.208249582410872 128.6323987172136 41.445989756245694 H 0.0 **** 0.06
3910 H 28.94266783120827 130.36802173192626 41.740552111934505 H 0.0 **** 0.06
3911 C 90.34546072532032 17.556921381303177 78.73605722774133 C 0.0 **** -0.24
3912 H 90.11651720378791 18.59599190901882 78.50025785361356 H 0.0 **** 0.06
3913 H 91.40652543869417 17.372122304441532 78.56545510595674 H 0.0 **** 0.06
3914 H 89.75455770733625 16.901055468016736 78.09577475576197 H 0.0 **** 0.06
3915 H 90.10429620680861 17.359292557458993 79.78064499224865 H 0.0 **** 0.06
3916 C 135.01990084080865 88.36316578197201 55.25776465397331 C 0.0 **** -0.24
3917 H 135.50258552324777 88.9002149112906 54.440904312143886 H 0.0 **** 0.06
3918 H 133.94431031529695 88.32604708318264 55.08339059568797 H 0.0 **** 0.06
3919 H 135.21855476205133 88.87973646560077 56.197432395785825 H 0.0 **** 0.06
3920 H 135.416574738159 87.34950250606006 55.30961654467089 H 0.0 **** 0.06
3921 C 65.0660839809373 96.20217354520065 88.362558437749 C 0.0 **** -0.24
3922 H 64.06198107983103 96.16633345161148 88.78553943998241 H 0.0 **** 0.06
3923 H 65.00944829304376 96.0569906262599 87.28322696245034 H 0.0 **** 0.06
3924 H 65.67527769659645 95.41346790053882 88.80447076084324 H 0.0 **** 0.06
3925 H 65.515374288999 97.17180768527086 88.57604355047255 H 0.0 **** 0.06
3926 C 105.84708952472522 40.65460982872139 55.02974109465322 C 0.0 **** -0.24
3927 H 105.7664959019192 41.49740416504096 54.34280335126101 H 0.0 **** 0.06
3928 H 105.79655783833152 39.72145941155233 54.46769308842897 H 0.0 **** 0.06
3929 H 105.02828540611506 40.691762129100226 55.74793644527017 H 0.0 **** 0.06
3930 H 106.79800991842114 40.70790117421595 55.560633303894406 H 0.0 **** 0.06
3931 C 2.049943092303181 122.2221022299376 95.36345779432786 C 0.0 **** -0.24
3932 H 2.4238301678565506 123.14808290798965 94.92524054867533 H 0.0 **** 0.06
3933 H 2.5263861225157314 121.37192611452622 94.87438651665926 H 0.0 **** 0.06
3934 H 0.9706292295904291 122.16435070714783 95.22393578352413 H 0.0 **** 0.06
3935 H 2.280629149465966 122.20576310556964 96.42848925992969 H 0.0 **** 0.06
3936 C 73.19393792727658 120.33073580887014 94.44402565223169 C 0.0 **** -0.24
3937 H 72.57087746796024 119.43729430436859 94.49367483360871 H 0.0 **** 0.06
3938 H 72.59804476766072 121.16767419325207 94.08083215651085 H 0.0 **** 0.06
3939 H 74.02668331061767 120.15497654663207 93.76316379981525 H 0.0 **** 0.06
3940 H 73.57860035529782 120.56079665323585 95.43710361473632 H 0.0 **** 0.06
3941 C 37.07057022367894 94.6301980299736 82.40806419570549 C 0.0 **** -0.24
3942 H 36.41624652973957 95.4510098662363 82.11437984856047 H 0.0 **** 0.06
3943 H 36.80053016392327 93.73385392118632 81.85003673200879 H 0.0 **** 0.06
3944 H 36.95928886208429 94.4428565660197 83.47605515797432 H 0.0 **** 0.06
3945 H 38.10511717308094 94.8960142829896 82.19141613836382 H 0.0 **** 0.06
3946 C 59.57941611960342 37.33500985926264 71.21103477493187 C 0.0 **** -0.24
3947 H 58.76884687378357 36.61542900450726 71.3268534224091 H 0.0 **** 0.06
3948 H 60.53432717095809 36.80884238303173 71.2079104682989 H 0.0 **** 0.06
3949 H 59.557109566274605 38.04493761351071 72.03769797864126 H 0.0 **** 0.06
3950 H 59.45620915169695 37.870569743663765 70.26954195524348 H 0.0 **** 0.06
3951 C 84.54283195092574 79.33264108348381 106.60365143318363 C 0.0 **** -0.24
3952 H 85.45284460023782 79.78084923459231 107.0021065476948 H 0.0 **** 0.06
3953 H 84.80471572715442 78.5578724300846 105.88352196397464 H 0.0 **** 0.06
3954 H 83.9456703605025 80.10079141242636 106.11077291095066 H 0.0 **** 0.06
3955 H 83.96736275851231 78.89260408698058 107.41798165133714 H 0.0 **** 0.06
3956 C 70.36778514181646 65.86860182842491 81.6738069289579 C 0.0 **** -0.24
3957 H 69.37889953495636 66.1950393226536 81.35323113434606 H 0.0 **** 0.06
3958 H 70.54832498731668 66.20635414556779 82.69520689124354 H 0.0 **** 0.06
3959 H 71.12371344408774 66.29138463586014 81.01200698659585 H 0.0 **** 0.06
3960 H 70.41958224839055 64.78038634590786 81.63653504045385 H 0.0 **** 0.06
3961 C 22.176346233727642 87.21584481483578 112.62276123997296 C 0.0 **** -0.24
3962 H 21.970205481514654 86.5773990643232 111.76405928542334 H 0.0 **** 0.06
3963 H 21.23768938660818 87.60458217993346 113.01935638628143 H 0.0 **** 0.06
3964 H 22.811712676913693 88.04535792558784 112.31430299412796 H 0.0 **** 0.06
3965 H 22.68414382225525 86.63547126874488 113.39232225961152 H 0.0 **** 0.06
3966 C 35.44575644566862 56.82377511479582 61.697715353820556 C 0.0 **** -0.24
3967 H 35.24299380761113 56.47739091430532 60.683588918379755 H 0.0 **** 0.06
3968 H 34.504079672590876 56.95829880984037 62.229254871790914 H 0.0 **** 0.06
3969 H 35.97980204884186 57.77247058034892 61.65643321512064 H 0.0 **** 0.06
3970 H 36.05638132080867 56.085296167028616 62.21767995781818 H 0.0 **** 0.06
3971 C 80.46770385965957 82.05175665101123 71.86569080302549 C 0.0 **** -0.24
3972 H 81.28437436666312 82.77099460630512 71.92774004620578 H 0.0 **** 0.06
3973 H 80.62018480488723 81.4035558466104 71.00145157495844 H 0.0 **** 0.06
3974 H 79.52249913133362 82.58395713436181 71.75936713659301 H 0.0 **** 0.06
3975 H 80.44600868671384 81.44849559265523 72.77323996086754 H 0.0 **** 0.06
3976 C 10.91904591553488 107.06641081753423 97.05702884709552 C 0.0 **** -0.24
3977 H 11.584770842095082 107.0312134510421 97.9193115865719 H 0.0 **** 0.06
3978 H 10.0179305200068 107.62259058231876 97.31698502229025 H 0.0 **** 0.06
3979 H 10.64970662662968 106.05155535871938 96.76495215809227 H 0.0 **** 0.06
3980 H 11.425397172518728 107.56042970128169 96.22802837080145 H 0.0 **** 0.06
3981 C 72.43996606403012 95.99835399383966 22.194768197651555 C 0.0 **** -0.24
3982 H 71.9983670322291 96.19905044863111 21.218145273821023 H 0.0 **** 0.06
3983 H 71.9641039794071 96.62914867596851 22.945395530417073 H 0.0 **** 0.06
3984 H 73.50758833179812 96.21496101775017 22.160575460708344 H 0.0 **** 0.06
3985 H 72.28934553834559 94.9501091032389 22.45167506936663 H 0.0 **** 0.06
3986 C 71.0677777786171 40.94797716645101 123.27711081192001 C 0.0 **** -0.24
3987 H 70.4142946928257 41.42248489975772 124.00824094174732 H 0.0 **** 0.06
3988 H 72.0702323977701 40.849307861734275 123.69646183206135 H 0.0 **** 0.06
3989 H 71.11045505807108 41.56090950286037 122.37683937634033 H 0.0 **** 0.06
3990 H 70.6791404481504 39.96054141552486 123.02728738925747 H 0.0 **** 0.06
3991 C 89.03167381983837 62.522345006234715 23.445746798108672 C 0.0 **** -0.24
3992 H 88.62040156014183 62.46382830217888 24.453518592153358 H 0.0 **** 0.06
3993 H 89.54602805254905 63.47434781457876 23.318030724949125 H 0.0 **** 0.06
3994 H 88.22209900768362 62.44575295326422 22.718949434240386 H 0.0 **** 0.06
3995 H 89.73558999295773 61.7043600023263 23.293570583309815 H 0.0 **** 0.06
3996 C 123.78258187057315 25.04358634085483 110.32906421907447 C 0.0 **** -0.24
3997 H 124.07661866860803 26.084853990466343 110.19465389322775 H 0.0 **** 0.06
3998 H 123.72504467881095 24.817025972093404 111.39364250480332 H 0.0 **** 0.06
3999 H 124.51952044442271 24.393831510325327 109.8578262490463 H 0.0 **** 0.06
4000 H 122.80703951632916 24.87961745404388 109.86935619826488 H 0.0 **** 0.06
4001 C 29.500249222263704 116.24767842143913 74.64160284032386 C 0.0 **** -0.24
4002 H 30.52289002405655 115.91688219245708 74.46095761981991 H 0.0 **** 0.06
4003 H 28.92887858213959 115.43441737358918 75.08864545919374 H 0.0 **** 0.06
4004 H 29.040403782328184 116.53878844331237 73.69638844172243 H 0.0 **** 0.06
4005 H 29.509448568531468 117.10117049635116 75.31927362808241 H 0.0 **** 0.06
4006 C 5.273378921647318 30.14934052945238 29.62053006093734 C 0.0 **** -0.24
4007 H 5.091585792224588 30.076978017406006 30.692901262681488 H 0.0 **** 0.06
4008 H 4.566510175487789 29.5112654107794 29.08833379065895 H 0.0 **** 0.06
4009 H 6.290445626187637 29.824909892859914 29.40247478840371 H 0.0 **** 0.06
4010 H 5.143803434630392 31.18207364928837 29.2986768284413 H 0.0 **** 0.06
4011 C 46.09452050242015 21.05241130824814 82.60290360826718 C 0.0 **** -0.24
4012 H 46.30928591510826 20.743128447026493 83.62547583561295 H 0.0 **** 0.06
4013 H 45.63327002060524 20.226484493414517 82.06207653895021 H 0.0 **** 0.06
4014 H 47.02280888171205 21.338226069928737 82.10787261375123 H 0.0 **** 0.06
4015 H 45.41358154617393 21.903595422104814 82.61721506127638 H 0.0 **** 0.06
4016 C 110.49119362250934 53.15552353996989 71.3401425034051 C 0.0 **** -0.24
4017 H 109.66397716377779 53.4463920053326 71.98730207397855 H 0.0 **** 0.06
4018 H 111.02190473511752 52.31415928469181 71.78676651677392 H 0.0 **** 0.06
4019 H 111.17481848266223 53.99700918607823 71.2257963666429 H 0.0 **** 0.06
4020 H 110.10490783080277 52.86597434971702 70.36405618104891 H 0.0 **** 0.06
4021 C 70.83017799904003 88.61266316034762 31.77558912775578 C 0.0 **** -0.24
4022 H 70.3484779143669 88.72181517081103 30.80453821629402 H 0.0 **** 0.06
4023 H 70.38396677112097 87.77477498304734 32.31131201035359 H 0.0 **** 0.06
4024 H 70.69417890371288 89.52753939612128 32.35338653055416 H 0.0 **** 0.06
4025 H 71.89545650122399 88.4282741941265 31.633369131235042 H 0.0 **** 0.06
4026 C 67.7417844731707 92.90988679620925 44.98633399918589 C 0.0 **** -0.24
4027 H 67.86650137993547 92.99381085961637 43.906738932712955 H 0.0 **** 0.06
4028 H 67.59842822696282 91.86332260296219 45.25521211249751 H 0.0 **** 0.06
4029 H 66.87131286438301 93.48813398020201 45.296723189758936 H 0.0 **** 0.06
4030 H 68.63087783641288 93.29659913942226 45.4850429790842 H 0.0 **** 0.06
4031 C 116.73170886996104 55.151959643427475 39.464332792426546 C 0.0 **** -0.24
4032 H 116.7271631775113 54.120428300526115 39.818130107748175 H 0.0 **** 0.06
4033 H 115.71463404229368 55.45117313854138 39.20781725994594 H 0.0 **** 0.06
4034 H 117.36762051285947 55.23097177595402 38.58297163163758 H 0.0 **** 0.06
4035 H 117.1143929864345 55.80350479829306 40.24973576335657 H 0.0 **** 0.06
4036 C 49.496723205063006 134.7513724365042 43.70030137560718 C 0.0 **** -0.24
4037 H 50.570268881038274 134.83704790477458 43.868275943418354 H 0.0 **** 0.06
4038 H 49.15992710097416 135.5783700642918 43.074410477922555 H 0.0 **** 0.06
4039 H 48.97628603998035 134.78442852303084 44.658099146961575 H 0.0 **** 0.06
4040 H 49.2808459292102 133.80601475420252 43.20280172477095 H 0.0 **** 0.06
4041 C 99.15136688517437 127.843061710935 115.47514347508942 C 0.0 **** -0.24
4042 H 99.38824089433136 128.1942127435288 116.47981692929304 H 0.0 **** 0.06
4043 H 99.82836378400197 128.30946367499632 114.75841721218822 H 0.0 **** 0.06
4044 H 98.12363835244756 128.1088175840117 115.23101878529704 H 0.0 **** 0.06
4045 H 99.2666068838956 126.76023782104474 115.43328416353833 H 0.0 **** 0.06
4046 C 19.579733524619115 37.98459589350978 56.17264443003738 C 0.0 **** -0.24
4047 H 20.567348883511386 37.56192200172998 55.99189133502064 H 0.0 **** 0.06
4048 H 18.840529251407617 37.18346265412413 56.19481797525563 H 0.0 **** 0.06
4049 H 19.332260015280397 38.685086302047694 55.373508506106745 H 0.0 **** 0.06
4050 H 19.577724429791502 38.509249618730706 57.127520047782 H 0.0 **** 0.06
4051 C 43.66206532822775 34.386694148860954 26.756018304142685 C 0.0 **** -0.24
4052 H 43.07167244697371 33.63925619537032 26.225738351475357 H 0.0 **** 0.06
4053 H 43.245188332242826 35.37644429646939 26.57284291350426 H 0.0 **** 0.06
4054 H 44.69204235919739 34.35456421387578 26.399048976520334 H 0.0 **** 0.06
4055 H 43.64093866675673 34.17428153569511 27.82485299753327 H 0.0 **** 0.06
4056 C 51.76045363431756 58.97595549313803 43.77335824164726 C 0.0 **** -0.24
4057 H 50.68186735401321 59.107798157807224 43.85835943444732 H 0.0 **** 0.06
4058 H 52.17851820004998 58.75877856670496 44.75678607752769 H 0.0 **** 0.06
4059 H 52.208633068661115 59.8885766479699 43.381109773203036 H 0.0 **** 0.06
4060 H 51.97372404793613 58.146919001732726 43.09745635587058 H 0.0 **** 0.06
4061 C 49.072386865468815 97.31672912815233 56.164232640609555 C 0.0 **** -0.24
4062 H 48.6832202166369 97.22010835539506 55.15044329930839 H 0.0 **** 0.06
4063 H 48.46050816415658 98.02596216350442 56.72242800012725 H 0.0 **** 0.06
4064 H 50.10145903801566 97.67636637056418 56.1250068685473 H 0.0 **** 0.06
4065 H 49.04643673674657 96.34574290174697 56.65760607453751 H 0.0 **** 0.06
4066 C 118.73787483613671 82.33438205084364 121.47550774847087 C 0.0 **** -0.24
4067 H 119.68176899733393 82.75126826548906 121.12519113709897 H 0.0 **** 0.06
4068 H 118.02396350616885 83.14192481270071 121.64219137380718 H 0.0 **** 0.06
4069 H 118.9028588797224 81.79660818394773 122.40895275408207 H 0.0 **** 0.06
4070 H 118.34278775930545 81.64931527634548 120.72501537450364 H 0.0 **** 0.06
4071 C 122.82684779340639 127.64505587259137 64.07108769004722 C 0.0 **** -0.24
4072 H 123.8063933768683 127.21171981000083 63.86724117191946 H 0.0 **** 0.06
4073 H 122.5007331551684 128.22695948954737 63.20898010435812 H 0.0 **** 0.06
4074 H 122.8918605214202 128.29408503841393 64.94471322541793 H 0.0 **** 0.06
4075 H 122.10989992678321 126.84674242100414 64.26391525520025 H 0.0 **** 0.06
4076 C 14.446392277655292 6.641663055445804 118.05299439712022 C 0.0 **** -0.24
4077 H 14.841589372464568 6.91682476603205 119.03114028458283 H 0.0 **** 0.06
4078 H 13.434134730005354 6.253387683885819 118.16584809683496 H 0.0 **** 0.06
4079 H 15.082069964430758 5.875683017301043 117.60841871393794 H 0.0 **** 0.06
4080 H 14.429107633939566 7.519971468369107 117.40735002371363 H 0.0 **** 0.06
4081 C 112.45362031066645 102.38967710546738 18.095137178536774 C 0.0 **** -0.24
4082 H 113.29745509783774 103.06113965558062 17.938478543670065 H 0.0 **** 0.06
4083 H 111.71615508464654 102.54146395231655 17.307518733300313 H 0.0 **** 0.06
4084 H 111.99888867438048 102.59778193354343 19.06383300175252 H 0.0 **** 0.06
4085 H 112.8028406377955 101.35664799813321 18.072286380221648 H 0.0 **** 0.06
4086 C 1.5341892395482546 12.242716632317695 96.67564290648971 C 0.0 **** -0.24
4087 H 1.0022000447741561 11.935910115350651 97.57622623069625 H 0.0 **** 0.06
4088 H 1.0997828218159498 11.744210673330457 95.8088194192681 H 0.0 **** 0.06
4089 H 2.585575804750192 11.969015726209875 96.76417634205674 H 0.0 **** 0.06
4090 H 1.447767446599471 13.323024556111335 96.55387598292852 H 0.0 **** 0.06
4091 C 13.668879041125422 55.58556748121157 24.843264578108858 C 0.0 **** -0.24
4092 H 13.364212300461208 54.840781002324505 25.579374216233674 H 0.0 **** 0.06
4093 H 14.75773372516013 55.62280797294039 24.79434889474291 H 0.0 **** 0.06
4094 H 13.28426402510836 56.56267097396962 25.135836147055073 H 0.0 **** 0.06
4095 H 13.27010134897958 55.31489988277481 23.866351379476868 H 0.0 **** 0.06
4096 C 80.40829720977416 114.61436246822785 70.21660638026337 C 0.0 **** -0.24
4097 H 80.64924880990125 114.06084060819578 71.12333283788034 H 0.0 **** 0.06
4098 H 80.86816678321654 115.60239617844618 70.26137800694076 H 0.0 **** 0.06
4099 H 79.32704062657865 114.72015763248359 70.13189736241043 H 0.0 **** 0.06
4100 H 80.789231521842 114.074745786271 69.34929330641717 H 0.0 **** 0.06
4101 C 67.21422147189817 47.711156144759684 57.82708445629376 C 0.0 **** -0.24
4102 H 66.40138486115497 47.65697347686853 57.10238522336033 H 0.0 **** 0.06
4103 H 67.62375700077044 48.72154014296717 57.83727838868738 H 0.0 **** 0.06
4104 H 67.9963185220173 47.00525434958644 57.548978567882855 H 0.0 **** 0.06
4105 H 66.83504197902899 47.46255442786935 58.81829188109823 H 0.0 **** 0.06
4106 C 116.49092538983817 33.367359541838624 123.66507990644871 C 0.0 **** -0.24
4107 H 116.34620070019528 34.37621024907284 124.05093357515915 H 0.0 **** 0.06
4108 H 115.7503618886982 33.16550495544851 122.89041575770702 H 0.0 **** 0.06
4109 H 116.37306027873655 32.648474077746755 124.4763169858563 H 0.0 **** 0.06
4110 H 117.49180195060066 33.278995879107356 123.24352089909408 H 0.0 **** 0.06
4111 C 127.37622878745282 109.71094990130084 4.894715194929233 C 0.0 **** -0.24
4112 H 126.68978901286363 109.31606035018314 5.643770430293216 H 0.0 **** 0.06
4113 H 126.81222804184864 110.03458829351177 4.020275726934187 H 0.0 **** 0.06
4114 H 128.08334777671217 108.93363224082321 4.60519136204482 H 0.0 **** 0.06
4115 H 127.91961142707174 110.55912077535862 5.312039493737359 H 0.0 **** 0.06
4116 C 15.206567578864338 16.42569616722026 62.60530266991077 C 0.0 **** -0.24
4117 H 14.63630272708393 15.710673055988053 63.19951229448492 H 0.0 **** 0.06
4118 H 14.855220339488369 17.435685350685873 62.81706678579968 H 0.0 **** 0.06
4119 H 15.070410580193354 16.207513518912094 61.54674440510581 H 0.0 **** 0.06
4120 H 16.263795369982347 16.348065995119825 62.85988475400586 H 0.0 **** 0.06
4121 C 59.48331854446435 78.66835381245059 6.076037871495288 C 0.0 **** -0.24
4122 H 59.11651554814898 77.70720883407901 5.717585789039475 H 0.0 **** 0.06
4123 H 60.50260144393813 78.55230772564886 6.4477902815332016 H 0.0 **** 0.06
4124 H 58.84101060356265 79.02437968466913 6.882124216089807 H 0.0 **** 0.06
4125 H 59.474602711424694 79.38886831861572 5.258987149912571 H 0.0 **** 0.06
4126 C 46.80615640239051 92.29707763523885 31.559558116021094 C 0.0 **** -0.24
4127 H 47.26934036881886 92.4227378697611 30.581356123001683 H 0.0 **** 0.06
4128 H 45.7263082144363 92.41453100012227 31.468006673140053 H 0.0 **** 0.06
4129 H 47.196833514314676 93.04734270050086 32.2461946549831 H 0.0 **** 0.06
4130 H 47.03173517956816 91.3020176677235 31.94275640341357 H 0.0 **** 0.06
4131 C 105.75926508665651 66.9008315591441 62.411069482616654 C 0.0 **** -0.24
4132 H 104.9507294402855 66.61861438792428 63.08558979389488 H 0.0 **** 0.06
4133 H 106.45542171702289 66.0679062909811 62.30978013839464 H 0.0 **** 0.06
4134 H 106.28359902734218 67.76643779727624 62.815767907836886 H 0.0 **** 0.06
4135 H 105.34608173847096 67.14966718348818 61.43312395392999 H 0.0 **** 0.06
4136 C 55.06751116277417 79.75762079740606 130.49734239341592 C 0.0 **** -0.24
4137 H 54.7516976744306 80.79838110407199 130.5705332028893 H 0.0 **** 0.06
4138 H 54.54079242280693 79.16550881702523 131.24587151364022 H 0.0 **** 0.06
4139 H 56.14148745582577 79.69114479521156 130.67015705342112 H 0.0 **** 0.06
4140 H 54.834682521700074 79.37688905922717 129.50271922608977 H 0.0 **** 0.06
4141 C 47.2573306835032 65.74668383925115 79.1353660838769 C 0.0 **** -0.24
4142 H 47.51418441057638 66.80454077083931 79.19290692432084 H 0.0 **** 0.06
4143 H 47.55765519107888 65.35224339777659 78.1645901087364 H 0.0 **** 0.06
4144 H 46.18060169613062 65.62704083628557 79.25968964728797 H 0.0 **** 0.06
4145 H 47.77635752095935 65.2035772449151 79.92540940578114 H 0.0 **** 0.06
4146 C 55.27194599626806 136.8835096776096 7.900925279805932 C 0.0 **** -0.24
4147 H 55.72028760413539 135.89048619448272 7.895341220237668 H 0.0 **** 0.06
4148 H 54.99143293214814 137.16053178365846 6.883238994624804 H 0.0 **** 0.06
4149 H 55.99151607299119 137.60455020649707 8.288879563517696 H 0.0 **** 0.06
4150 H 54.384106211739464 136.87781127305834 8.533526358179273 H 0.0 **** 0.06
4151 C 69.92737614233593 38.51515884874905 66.01999855290799 C 0.0 **** -0.24
4152 H 68.98781805522276 38.8905053800824 66.42586387184849 H 0.0 **** 0.06
4153 H 70.12176697017918 37.51798349187456 66.41662134382813 H 0.0 **** 0.06
4154 H 70.73856384563851 39.18512033621934 66.30495499844079 H 0.0 **** 0.06
4155 H 69.86049252637224 38.46735897839568 64.93293377420162 H 0.0 **** 0.06
4156 C 1.3348591967440484 74.19590763381471 121.00790862748747 C 0.0 **** -0.24
4157 H 1.1055991034624988 75.16514668780944 120.56423469151842 H 0.0 **** 0.06
4158 H 0.8655028545319823 73.40701299976236 120.42011109030044 H 0.0 **** 0.06
4159 H 0.9536211438501709 74.16556887299323 122.02876522014404 H 0.0 **** 0.06
4160 H 2.415018711021112 74.04905418716832 121.0195089142653 H 0.0 **** 0.06
4161 C 2.9895346199630737 36.06196148101798 56.423382844694515 C 0.0 **** -0.24
4162 H 3.2213658907519864 37.08511784758158 56.71586580554896 H 0.0 **** 0.06
4163 H 3.664072727045962 35.75046581934842 55.62524883303041 H 0.0 **** 0.06
4164 H 1.9596766501159415 36.00929529635693 56.06976453093108 H 0.0 **** 0.06
4165 H 3.11336357151556 35.402077364303324 57.28160680688052 H 0.0 **** 0.06
4166 C 96.6156527968185 93.95883883608398 121.44477442215938 C 0.0 **** -0.24
4167 H 96.96650044848059 93.92663088916053 122.47626539907003 H 0.0 **** 0.06
4168 H 95.55525048991382 93.70848138562532 121.41319661993722 H 0.0 **** 0.06
4169 H 97.17721698644135 93.23924856248807 120.84796907840533 H 0.0 **** 0.06
4170 H 96.7656067074198 94.96068764901818 121.04144096469395 H 0.0 **** 0.06
4171 C 21.609145166077155 32.20420406580216 37.78293435883159 C 0.0 **** -0.24
4172 H 21.62279260345872 33.2409789672444 38.11779189876873 H 0.0 **** 0.06
4173 H 21.127259759155976 32.14482023860819 36.807160785235574 H 0.0 **** 0.06
4174 H 21.05462286192909 31.59846585375439 38.49939320420832 H 0.0 **** 0.06
4175 H 22.63131262273555 31.83363693637977 37.706706094710476 H 0.0 **** 0.06
4176 C 126.44307496390591 87.1591947292419 109.45661288955061 C 0.0 **** -0.24
4177 H 126.62492906605398 86.5695697381417 110.3557288805373 H 0.0 **** 0.06
4178 H 125.90470491289334 88.06909000224391 109.72147574650833 H 0.0 **** 0.06
4179 H 125.84761759410807 86.5748367907072 108.75492036656857 H 0.0 **** 0.06
4180 H 127.39593976949394 87.42011048857745 108.99579111950358 H 0.0 **** 0.06
4181 C 0.6122751295344528 7.923941664874349 94.33062571716633 C 0.0 **** -0.24
4182 H 0.8781904827291669 7.195007003627865 93.56437680394686 H 0.0 **** 0.06
4183 H -0.02218351983904654 7.44820212495199 95.07968530100918 H 0.0 **** 0.06
4184 H 0.07454181505920587 8.75358620703534 93.8719342445917 H 0.0 **** 0.06
4185 H 1.5193485485842757 8.297528119402102 94.80597510943716 H 0.0 **** 0.06
4186 C 51.980125806720594 77.42129895576232 84.60918633675446 C 0.0 **** -0.24
4187 H 52.5553826367302 76.59579830295012 85.02768996451853 H 0.0 **** 0.06
4188 H 52.0495948611852 78.28538310340092 85.27026327333924 H 0.0 **** 0.06
4189 H 50.93659838441488 77.12298126896744 84.50885621086157 H 0.0 **** 0.06
4190 H 52.37867238360741 77.68135130451643 83.62858169599828 H 0.0 **** 0.06
4191 C 91.19589943597344 47.628261982309084 116.44710674640055 C 0.0 **** -0.24
4192 H 90.47702841957668 47.78622090333806 117.25132656780733 H 0.0 **** 0.06
4193 H 91.759201696131 46.714917466487464 116.63737340858026 H 0.0 **** 0.06
4194 H 91.88121218405591 48.475367313511754 116.40207219210208 H 0.0 **** 0.06
4195 H 90.66630648592007 47.53968257604339 115.49871123690201 H 0.0 **** 0.06
4196 C 90.84223038809779 31.167452104395124 133.67146817633198 C 0.0 **** -0.24
4197 H 90.71482246842231 31.908454240378006 132.88280850246713 H 0.0 **** 0.06
4198 H 90.08741080595962 30.386962214439038 133.5613948926969 H 0.0 **** 0.06
4199 H 90.72954609305953 31.647041517370326 134.64388388755663 H 0.0 **** 0.06
4200 H 91.83543221232162 30.724401701022828 133.59716780103372 H 0.0 **** 0.06
4201 C 94.20361621435158 113.56273299631275 114.32675640864318 C 0.0 **** -0.24
4202 H 93.50758761925232 112.72383684596062 114.32088173272865 H 0.0 **** 0.06
4203 H 94.66554238990251 113.6435959148063 115.31113311302323 H 0.0 **** 0.06
4204 H 93.66600544093664 114.48317831403673 114.09998975521839 H 0.0 **** 0.06
4205 H 94.97595638569203 113.39797456458297 113.57534015313928 H 0.0 **** 0.06
4206 C 28.98524086339944 64.13720125942193 67.78427366343072 C 0.0 **** -0.24
4207 H 28.039424448746672 64.1898417620228 68.32419623569069 H 0.0 **** 0.06
4208 H 29.093085590090823 63.14717867349138 67.33907152603479 H 0.0 **** 0.06
4209 H 29.808187572412123 64.31714197863815 68.47452073436324 H 0.0 **** 0.06
4210 H 28.997532900119268 64.89219549506663 66.99856911090419 H 0.0 **** 0.06
4211 C 131.51562202793264 123.25184890144592 79.81295273798007 C 0.0 **** -0.24
4212 H 131.50583030228785 124.32551020688196 79.62440672586986 H 0.0 **** 0.06
4213 H 130.51334384798764 122.92182588884778 80.0834194729486 H 0.0 **** 0.06
4214 H 132.20355128693558 123.03309521724132 80.63029677246222 H 0.0 **** 0.06
4215 H 131.8421232206383 122.7290603336221 78.91387479180538 H 0.0 **** 0.06
4216 C 45.25378699989608 37.487132696127446 127.36591480027091 C 0.0 **** -0.24
4217 H 44.443440875365525 36.998078905244824 127.90628282060452 H 0.0 **** 0.06
4218 H 44.9233024272113 38.46893213970861 127.02743164858589 H 0.0 **** 0.06
4219 H 45.5335455057417 36.87987643269446 126.5041427052776 H 0.0 **** 0.06
4220 H 46.11404109443856 37.599818258237065 128.02579200251162 H 0.0 **** 0.06
4221 C 36.392208940705075 72.93439408394455 18.35259804439096 C 0.0 **** -0.24
4222 H 36.7531727458678 72.31495187442287 17.53088362077426 H 0.0 **** 0.06
4223 H 36.9152301490746 73.89090880158213 18.342724138686833 H 0.0 **** 0.06
4224 H 36.578274711847655 72.4272147963357 19.299264700335932 H 0.0 **** 0.06
4225 H 35.32121505206689 73.1037972273264 18.234760031506596 H 0.0 **** 0.06
4226 C 102.7582200718528 122.83430425398406 42.57413119572942 C 0.0 **** -0.24
4227 H 102.93607583919623 123.83371058433137 42.97139481377661 H 0.0 **** 0.06
4228 H 101.86115824282714 122.8439570429011 41.95429895854443 H 0.0 **** 0.06
4229 H 102.62349891450509 122.13480644896022 43.39954571139526 H 0.0 **** 0.06
4230 H 103.61315817223681 122.52587719328905 41.97258598101013 H 0.0 **** 0.06
4231 C 73.34431788647083 85.23072509903272 109.56585509572412 C 0.0 **** -0.24
4232 H 72.58529989771341 84.68477698165634 110.12620089089319 H 0.0 **** 0.06
4233 H 72.91381834586349 86.15375539452498 109.17588414711565 H 0.0 **** 0.06
4234 H 73.69592206521395 84.61569175273644 108.73674074727268 H 0.0 **** 0.06
4235 H 74.18029918391403 85.46799003640649 110.22325424845332 H 0.0 **** 0.06
4236 C 129.6560436089518 10.27708596383059 69.73879951073664 C 0.0 **** -0.24
4237 H 129.3162764695472 10.73811247279011 70.66653704787925 H 0.0 **** 0.06
4238 H 130.6982453840143 9.976388868160669 69.84303361820957 H 0.0 **** 0.06
4239 H 129.5633875350692 10.992500915399166 68.92190885532753 H 0.0 **** 0.06
4240 H 129.04461356384468 9.399681582088892 69.52443770497712 H 0.0 **** 0.06
4241 C 4.530253079219392 106.10440366659248 105.12332009238796 C 0.0 **** -0.24
4242 H 4.0993277996564075 105.20367443383526 104.68621219589275 H 0.0 **** 0.06
4243 H 5.579458718119724 105.92723167347981 105.35960524155612 H 0.0 **** 0.06
4244 H 3.990365558486843 106.3589415697902 106.03568241574885 H 0.0 **** 0.06
4245 H 4.450742589235858 106.92666167591346 104.41337091552496 H 0.0 **** 0.06
4246 C 113.63146300313099 63.008183597313845 103.0877212138841 C 0.0 **** -0.24
4247 H 113.58838666887368 63.83479488304553 102.37899683691711 H 0.0 **** 0.06
4248 H 113.55023280748577 62.063372066013386 102.54939145235625 H 0.0 **** 0.06
4249 H 112.80807738573475 63.0957176265203 103.79718792967125 H 0.0 **** 0.06
4250 H 114.57895188794814 63.04001742411644 103.62608029902879 H 0.0 **** 0.06
4251 C 109.75308776404316 52.99540151356115 117.57744201312715 C 0.0 **** -0.24
4252 H 109.97832190253104 53.37282398557305 116.57999781871456 H 0.0 **** 0.06
4253 H 109.8040892525795 51.906293471426736 117.573752356965 H 0.0 **** 0.06
4254 H 108.75022275831891 53.311875819358775 117.866377845161 H 0.0 **** 0.06
4255 H 110.47782559778591 53.39140321147897 118.28874700079433 H 0.0 **** 0.06
4256 C 127.84058988953427 47.19722936586663 45.52782572704311 C 0.0 **** -0.24
4257 H 127.90460575135711 48.27744542233586 45.65708624974911 H 0.0 **** 0.06
4258 H 128.82282308685393 46.75330278790395 45.68872378347055 H 0.0 **** 0.06
4259 H 127.50040965661861 46.971586835876565 44.51630459583646 H 0.0 **** 0.06
4260 H 127.13336769166204 46.7859758967665 46.24863877086074 H 0.0 **** 0.06
4261 C 119.82968612349688 57.05070167455062 101.29625379453044 C 0.0 **** -0.24
4262 H 120.76790350281784 56.71149199328954 101.73582406567115 H 0.0 **** 0.06
4263 H 119.09285767164157 56.24964884369041 101.34994949215081 H 0.0 **** 0.06
4264 H 119.99434502971087 57.32439470391944 100.25430004655354 H 0.0 **** 0.06
4265 H 119.46398909566285 57.91845195130446 101.84563637837887 H 0.0 **** 0.06
4266 C 9.72891645271153 86.58722956972393 62.606953469568765 C 0.0 **** -0.24
4267 H 10.06074605506177 85.78201831796378 63.26253872303906 H 0.0 **** 0.06
4268 H 10.222720677566713 86.49457216628473 61.638746809789495 H 0.0 **** 0.06
4269 H 9.984686681580428 87.54837618585367 63.05398241535681 H 0.0 **** 0.06
4270 H 8.649500636609758 86.5252096746417 62.47186442424754 H 0.0 **** 0.06
4271 C 99.71999445443618 24.76903442704883 34.65709567706551 C 0.0 **** -0.24
4272 H 99.72950669319408 24.154054378298753 33.75673177402331 H 0.0 **** 0.06
4273 H 100.65485751316947 24.630772002337174 35.20105308865294 H 0.0 **** 0.06
4274 H 98.88306754024018 24.474819678080358 35.28956941883246 H 0.0 **** 0.06
4275 H 99.61318215672847 25.817824963390493 34.37841728021249 H 0.0 **** 0.06
4276 C 93.66062572238751 34.24673843209911 91.40056325303176 C 0.0 **** -0.24
4277 H 93.71507178680365 33.56115030931764 92.24614270469472 H 0.0 **** 0.06
4278 H 93.11277299452759 33.7749182695064 90.58488918601365 H 0.0 **** 0.06
4279 H 94.66925483236582 34.49225127186935 91.06748691559424 H 0.0 **** 0.06
4280 H 93.14650239238662 35.158933503703906 91.70457221525022 H 0.0 **** 0.06
4281 C 83.22595190866232 66.24763267074792 67.7533430101031 C 0.0 **** -0.24
4282 H 83.34678456088712 65.4300245608149 68.46454870988698 H 0.0 **** 0.06
4283 H 84.05222147049744 66.95068007906707 67.86542816632536 H 0.0 **** 0.06
4284 H 82.28331619299098 66.76065371594564 67.94677368492493 H 0.0 **** 0.06
4285 H 83.22118045026217 65.84946034065615 66.73903484325474 H 0.0 **** 0.06
4286 C 51.74670767135562 65.95771274408366 54.71769554560895 C 0.0 **** -0.24
4287 H 51.45151755999645 64.95393573838807 55.02570958949633 H 0.0 **** 0.06
4288 H 52.14666857285454 65.92354874280515 53.70478433783212 H 0.0 **** 0.06
4289 H 52.51053842396739 66.33527065941716 55.39822600814246 H 0.0 **** 0.06
4290 H 50.87824955379631 66.6146039094675 54.74466738819261 H 0.0 **** 0.06
4291 C 66.69973222962795 98.86493097823575 91.56022178895614 C 0.0 **** -0.24
4292 H 67.4361353633252 98.10371641007532 91.81517238116896 H 0.0 **** 0.06
4293 H 67.0990337038894 99.85040610076055 91.79834180152181 H 0.0 **** 0.06
4294 H 65.78746158052348 98.69360016862953 92.13139957735956 H 0.0 **** 0.06
4295 H 66.47650685775324 98.81109381550493 90.49394033998874 H 0.0 **** 0.06
4296 C 128.19974470635628 81.32110647608538 52.39939041982693 C 0.0 **** -0.24
4297 H 128.7970235549153 82.23191453526522 52.36224611645106 H 0.0 **** 0.06
4298 H 127.46281821351451 81.40198023429407 53.19844225821116 H 0.0 **** 0.06
4299 H 128.8499661406914 80.4677434382484 52.590292604367534 H 0.0 **** 0.06
4300 H 127.68848880473136 81.18210368562559 51.44554776970264 H 0.0 **** 0.06
4301 C 22.471997557806105 50.38825875405935 105.83924175711638 C 0.0 **** -0.24
4302 H 23.241067734543662 50.928262770081034 105.28753281408183 H 0.0 **** 0.06
4303 H 22.443122266084117 49.35225947440631 105.50151734904006 H 0.0 **** 0.06
4304 H 21.502768509748194 50.85522404243774 105.6637893695318 H 0.0 **** 0.06
4305 H 22.702512037700615 50.41806224606134 106.90458626906178 H 0.0 **** 0.06
4306 C 64.38432352372394 28.468771522733185 36.2356122344529 C 0.0 **** -0.24
4307 H 63.64937644407914 27.742036512276357 36.58108734976872 H 0.0 **** 0.06
4308 H 64.34768771693138 29.352011579088824 36.873084484475726 H 0.0 **** 0.06
4309 H 64.15841927463376 28.752301459030157 35.20709283180861 H 0.0 **** 0.06
4310 H 65.38043254752768 28.02851607912556 36.28095558521477 H 0.0 **** 0.06
4311 C 136.03550336367786 112.52505132169796 22.212866950385013 C 0.0 **** -0.24
4312 H 136.89598433866288 113.05491527243112 21.80396383184779 H 0.0 **** 0.06
4313 H 136.24380462221035 111.45469915086073 22.232178574044397 H 0.0 **** 0.06
4314 H 135.16200583296052 112.71414073313372 21.588865891537964 H 0.0 **** 0.06
4315 H 135.84036509923985 112.87511406485555 23.226019529734877 H 0.0 **** 0.06
4316 C 130.42148486974307 45.1852060132547 103.80932023633775 C 0.0 **** -0.24
4317 H 131.37589630680918 44.85892277293154 103.39839684872283 H 0.0 **** 0.06
4318 H 130.16452517309037 46.16297650710274 103.40077442757763 H 0.0 **** 0.06
4319 H 130.49711362980128 45.25225884313401 104.89484881404223 H 0.0 **** 0.06
4320 H 129.64665282342452 44.46495441366364 103.54331633081893 H 0.0 **** 0.06
4321 C 103.30265182085873 63.430553873871986 54.53135776012181 C 0.0 **** -0.24
4322 H 102.93831764602253 62.91709771958544 53.64220738149794 H 0.0 **** 0.06
4323 H 104.37836504215446 63.27743404628977 54.62555175933875 H 0.0 **** 0.06
4324 H 102.80019244925998 63.03071164196477 55.41260339547068 H 0.0 **** 0.06
4325 H 103.09351072440539 64.497245245076 54.447276804257115 H 0.0 **** 0.06
4326 C 97.13360417814192 61.044037593846554 105.58326092286927 C 0.0 **** -0.24
4327 H 96.37870676026006 60.408014543815 105.12084267508754 H 0.0 **** 0.06
4328 H 97.22286873416013 61.97229272222455 105.01771041137579 H 0.0 **** 0.06
4329 H 98.09237314862264 60.526126313132465 105.58657748767399 H 0.0 **** 0.06
4330 H 96.83986577182799 61.270360238327214 106.60901915188941 H 0.0 **** 0.06
4331 C 50.04911361040723 54.76896696182013 33.877827966584604 C 0.0 **** -0.24
4332 H 50.6479460090991 54.03379631451031 33.34024268205306 H 0.0 **** 0.06
4333 H 50.05437741903616 55.712648936669666 33.33186669571498 H 0.0 **** 0.06
4334 H 50.46875673880446 54.922013055771174 34.87315891521743 H 0.0 **** 0.06
4335 H 49.025040676835744 54.40651897816372 33.96806739232569 H 0.0 **** 0.06
4336 C 18.046203374381662 6.801910020005835 2.2100167045423973 C 0.0 **** -0.24
4337 H 18.25965608454885 5.801217528773179 2.585744719379079 H 0.0 **** 0.06
4338 H 18.822578075520994 7.489386933010167 2.546620189852206 H 0.0 **** 0.06
4339 H 17.078517248295213 7.131881556190422 2.5856419556467642 H 0.0 **** 0.06
4340 H 18.025282988925994 6.782742212893595 1.1201382620501477 H 0.0 **** 0.06
4341 C 21.15252116939522 6.1146681566905094 130.16198260090735 C 0.0 **** -0.24
4342 H 21.720299036878764 6.110917617648244 131.09248423653528 H 0.0 **** 0.06
4343 H 20.399045834021663 6.9020225258546155 130.20093292343086 H 0.0 **** 0.06
4344 H 20.663515801248778 5.149324358739005 130.03039926597353 H 0.0 **** 0.06
4345 H 21.827300010771935 6.298147731006743 129.32551691182655 H 0.0 **** 0.06
4346 C 96.293911218368 98.07870687630991 136.43013090164385 C 0.0 **** -0.24
4347 H 96.71770332547783 98.34800665427815 137.3976229916355 H 0.0 **** 0.06
4348 H 95.30592272479339 97.64111472056263 136.5757019699501 H 0.0 **** 0.06
4349 H 96.94363238719853 97.35565930366053 135.93770259140052 H 0.0 **** 0.06
4350 H 96.20837777026503 98.97139650220856 135.81058161338427 H 0.0 **** 0.06
4351 C 110.24224172431877 62.91168800886129 49.53880007548068 C 0.0 **** -0.24
4352 H 109.25138262597511 62.458698239244825 49.501375597024534 H 0.0 **** 0.06
4353 H 110.88344369316869 62.444512915895245 48.792071558396174 H 0.0 **** 0.06
4354 H 110.6711139154666 62.7652491897515 50.530603191849664 H 0.0 **** 0.06
4355 H 110.15992912868461 63.979117915130814 49.33200033456811 H 0.0 **** 0.06
4356 C 95.30557062304547 35.424676929518256 66.59489213328486 C 0.0 **** -0.24
4357 H 94.71051222865928 34.735099734143034 67.19370584785116 H 0.0 **** 0.06
4358 H 96.31410685937028 35.02647839068186 66.47958087050321 H 0.0 **** 0.06
4359 H 95.35162845237977 36.392681210717 67.09319968911781 H 0.0 **** 0.06
4360 H 94.8459232412261 35.542235260935854 65.61338186770841 H 0.0 **** 0.06
4361 C 83.4493572893932 109.8729006603447 84.16457630125973 C 0.0 **** -0.24
4362 H 84.25104192718614 109.87703929110424 83.42630693368164 H 0.0 **** 0.06
4363 H 83.61956392373624 109.06627063290672 84.87904313337839 H 0.0 **** 0.06
4364 H 82.49395916440851 109.71960077848183 83.66284467272283 H 0.0 **** 0.06
4365 H 83.4353862905336 110.82723518951002 84.69082953852524 H 0.0 **** 0.06
4366 C 90.86386337952105 79.80270394076933 51.98082971649694 C 0.0 **** -0.24
4367 H 90.66905147501998 79.32307204793574 52.94009070011265 H 0.0 **** 0.06
4368 H 90.96948344733613 80.87720526927359 52.12596515859792 H 0.0 **** 0.06
4369 H 90.03417948736882 79.60694918960155 51.301826946582196 H 0.0 **** 0.06
4370 H 91.7843520907787 79.40111862798352 51.55489319725041 H 0.0 **** 0.06
4371 C 38.37203511719491 95.261243959455 43.05374466171398 C 0.0 **** -0.24
4372 H 37.681968831979304 94.5688274213995 42.57059565126389 H 0.0 **** 0.06
4373 H 39.273186288301645 94.72662012859348 43.35456022195244 H 0.0 **** 0.06
4374 H 37.89501855088656 95.69393139245568 43.93295671097133 H 0.0 **** 0.06
4375 H 38.63621438846462 96.05596550447466 42.35552687588481 H 0.0 **** 0.06
4376 C 66.71303532110426 33.10725213847704 99.60150088650978 C 0.0 **** -0.24
4377 H 67.03174107631371 33.87048399591907 100.31150077353088 H 0.0 **** 0.06
4378 H 67.01770925084956 33.39749033068301 98.59518000014019 H 0.0 **** 0.06
4379 H 65.62786945842697 33.00720510669251 99.63847038141947 H 0.0 **** 0.06
4380 H 67.17512113153154 32.155209186179775 99.86077668118513 H 0.0 **** 0.06
4381 C 94.20157954830086 104.16778713373256 44.31698434441381 C 0.0 **** -0.24
4382 H 94.47335884087181 103.58608599168821 45.19848358658459 H 0.0 **** 0.06
4383 H 93.39441685218515 103.6631861294083 43.78494738985657 H 0.0 **** 0.06
4384 H 95.0678135214863 104.25840316398762 43.661431516041205 H 0.0 **** 0.06
4385 H 93.87149123765192 105.15991382471648 44.62394096994177 H 0.0 **** 0.06
4386 C 5.237130534192431 118.95806750635253 94.63046651092915 C 0.0 **** -0.24
4387 H 5.196315321473207 117.9438589740125 95.02626971903595 H 0.0 **** 0.06
4388 H 4.763567269903206 119.6420246736656 95.33550448000824 H 0.0 **** 0.06
4389 H 4.709978081896622 118.99713078903983 93.67666964465803 H 0.0 **** 0.06
4390 H 6.276308691324857 119.24986523218658 94.48311711642376 H 0.0 **** 0.06
4391 C 110.07356256753977 56.91141833096614 116.02528177927618 C 0.0 **** -0.24
4392 H 110.99428896350759 56.937930455188706 115.44290385233484 H 0.0 **** 0.06
4393 H 109.49984854994025 56.02354981170669 115.75859319206347 H 0.0 **** 0.06
4394 H 109.48342506636641 57.80302889985171 115.81264264604397 H 0.0 **** 0.06
4395 H 110.31773595969378 56.882303439764286 117.08776415406822 H 0.0 **** 0.06
4396 C 84.97162521772364 81.04149142058642 27.477437564933993 C 0.0 **** -0.24
4397 H 84.32546975678395 81.80021988029884 27.91963247138014 H 0.0 **** 0.06
4398 H 86.00946819736562 81.37331098604281 27.530718689290524 H 0.0 **** 0.06
4399 H 84.69212188184035 80.88920582890387 26.43497747333872 H 0.0 **** 0.06
4400 H 84.86057215152606 80.10539818734426 28.02429743406556 H 0.0 **** 0.06
4401 C 112.11712541816263 99.52819728376217 128.85353939703796 C 0.0 **** -0.24
4402 H 111.93046952581096 98.56382474192756 128.37981553831446 H 0.0 **** 0.06
4403 H 113.11659030819959 99.53126146288474 129.28948394309597 H 0.0 **** 0.06
4404 H 111.37781703432563 99.6967200146629 129.63637287283265 H 0.0 **** 0.06
4405 H 112.04357371546416 100.31909515250862 128.10782650336643 H 0.0 **** 0.06
4406 C 106.47986595820302 41.76779432588694 58.42264373450422 C 0.0 **** -0.24
4407 H 106.3607746280596 42.38505339674782 57.531746101283815 H 0.0 **** 0.06
4408 H 107.26557655579799 42.18658529942936 59.051469657408674 H 0.0 **** 0.06
4409 H 106.75208143052954 40.75382076602245 58.12835569027777 H 0.0 **** 0.06
4410 H 105.5421210893533 41.746209478781644 58.97740016145083 H 0.0 **** 0.06
4411 C 114.26826277573633 91.06951734280983 55.98990813921279 C 0.0 **** -0.24
4412 H 113.26932533393523 90.6615582501712 55.83877116900237 H 0.0 **** 0.06
4413 H 114.87772343562114 90.34707070517028 56.5322701908392 H 0.0 **** 0.06
4414 H 114.2003491825659 91.9934490358483 56.56517075982322 H 0.0 **** 0.06
4415 H 114.72603034860583 91.27794138132975 55.02239308691895 H 0.0 **** 0.06
4416 C 94.91619330814679 98.20798395366614 76.31924308757505 C 0.0 **** -0.24
4417 H 94.73858754611481 97.59188169564601 77.20153177633449 H 0.0 **** 0.06
4418 H 93.98684411410827 98.31583843589328 75.75952300438024 H 0.0 **** 0.06
4419 H 95.66807961155037 97.73298062232027 75.69042212430546 H 0.0 **** 0.06
4420 H 95.26956514304383 99.19180600065033 76.62946982796564 H 0.0 **** 0.06
4421 C 1.194280781912596 130.4207196671086 17.39387778342683 C 0.0 **** -0.24
4422 H 0.7462816144030171 130.36444417403567 16.401186526075335 H 0.0 **** 0.06
4423 H 2.0675065232286727 131.07301367632297 17.36091662155799 H 0.0 **** 0.06
4424 H 1.4973244737938103 129.42425475861734 17.712914140937535 H 0.0 **** 0.06
4425 H 0.4656085348259751 130.823138716207 18.098269557963796 H 0.0 **** 0.06
4426 C 113.45095350965337 88.4706846240048 46.625084502121084 C 0.0 **** -0.24
4427 H 112.61527616609004 87.85777205836742 46.962993707024694 H 0.0 **** 0.06
4428 H 114.38932691899154 87.98324714526802 46.89295983505312 H 0.0 **** 0.06
4429 H 113.40030590447887 89.44930379029792 47.103794717758475 H 0.0 **** 0.06
4430 H 113.39885326717629 88.59247041329311 45.54358886860463 H 0.0 **** 0.06
4431 C 37.44985403425906 59.386020396975795 111.2510843800693 C 0.0 **** -0.24
4432 H 37.78104609432992 58.66964974730274 112.00288686246574 H 0.0 **** 0.06
4433 H 36.48654789041967 59.80135080377164 111.54583673851334 H 0.0 **** 0.06
4434 H 37.35046438397117 58.882976877095984 110.2899970231301 H 0.0 **** 0.06
4435 H 38.18253070959153 60.189032730905865 111.16719057998762 H 0.0 **** 0.06
4436 C 111.9516189379078 126.12870806004469 23.847676869374 C 0.0 **** -0.24
4437 H 112.59212595155381 126.96387236609769 24.13053441869181 H 0.0 **** 0.06
4438 H 112.35580746454184 125.64572369167827 22.957541015945253 H 0.0 **** 0.06
4439 H 110.94689902866932 126.49730677463648 23.63733899498692 H 0.0 **** 0.06
4440 H 111.91023889480982 125.40934797560175 24.665168639443692 H 0.0 **** 0.06
4441 C 29.81345842168699 67.11535380649005 39.85683956038115 C 0.0 **** -0.24
4442 H 29.842247890193335 67.35234001480597 38.792978292460724 H 0.0 **** 0.06
4443 H 30.481970188840705 67.78689146057997 40.3956913620599 H 0.0 **** 0.06
4444 H 30.132166595711283 66.08405665508451 40.00774793921207 H 0.0 **** 0.06
4445 H 28.796296434829344 67.24006792329456 40.22896449738997 H 0.0 **** 0.06
4446 C 57.01224273959757 67.70236683077536 65.4789767557779 C 0.0 **** -0.24
4447 H 58.06579599619815 67.85947412471194 65.70704216132519 H 0.0 **** 0.06
4448 H 56.92148960848081 67.04575277604084 64.61365374271874 H 0.0 **** 0.06
4449 H 56.54194646008638 68.66100221974091 65.25839639531185 H 0.0 **** 0.06
4450 H 56.51915697101457 67.2439297897925 66.33638679901014 H 0.0 **** 0.06
4451 C 119.33792813370725 129.91010521236723 82.26712791634941 C 0.0 **** -0.24
4452 H 120.27259116916719 129.4490041857258 81.94678443053942 H 0.0 **** 0.06
4453 H 118.67670530198185 130.02381510844356 81.40782848744394 H 0.0 **** 0.06
4454 H 119.54627177424986 130.88967925590293 82.69865164999766 H 0.0 **** 0.06
4455 H 118.85939623759705 129.27818736283223 83.01465120790786 H 0.0 **** 0.06
4456 C 96.64096688172275 0.22866382105132743 105.18264150315446 C 0.0 **** -0.24
4457 H 95.63237717953525 0.5222717760848923 105.47280907981289 H 0.0 **** 0.06
4458 H 96.58721491048865 -0.516615085523199 104.38824475164543 H 0.0 **** 0.06
4459 H 97.15752285822846 -0.19497836304148564 106.04404866307401 H 0.0 **** 0.06
4460 H 97.18526329583752 1.1030975280631594 104.82555722548399 H 0.0 **** 0.06
4461 C 55.89162171905963 19.84260217795361 75.08099719661978 C 0.0 **** -0.24
4462 H 55.49355422034098 18.862076727736508 74.82226932659967 H 0.0 **** 0.06
4463 H 56.92330056638943 19.739396879989073 75.41840573128694 H 0.0 **** 0.06
4464 H 55.29074425426988 20.280459580391096 75.87863387503222 H 0.0 **** 0.06
4465 H 55.858525743123124 20.49120049459688 74.20534603196887 H 0.0 **** 0.06
4466 C 56.220903354206484 55.831648958993725 37.23123316241004 C 0.0 **** -0.24
4467 H 57.23500894658366 55.54562470161275 37.513407070086735 H 0.0 **** 0.06
4468 H 55.97227733448284 56.78693752304109 37.69346029370658 H 0.0 **** 0.06
4469 H 55.52018530980121 55.06998620719163 37.57038806312918 H 0.0 **** 0.06
4470 H 56.15961247121015 55.92512853225479 36.1467904125002 H 0.0 **** 0.06
4471 C 69.74593929727197 136.76688461109364 32.02160481130255 C 0.0 **** -0.24
4472 H 68.88386422804754 137.4103446218865 32.19718057425216 H 0.0 **** 0.06
4473 H 70.40605121015744 136.79861852634446 32.88880393189714 H 0.0 **** 0.06
4474 H 70.28557472354728 137.11519191451117 31.140937058496654 H 0.0 **** 0.06
4475 H 69.40827364860584 135.74315430801437 31.85852427017675 H 0.0 **** 0.06
4476 C 34.603319583858934 37.52337512161291 3.146066355674847 C 0.0 **** -0.24
4477 H 35.327662956450524 36.841354675560304 2.700667819133532 H 0.0 **** 0.06
4478 H 33.59435704347126 37.159124843051465 2.950962746073717 H 0.0 **** 0.06
4479 H 34.72288939655783 38.51476041207622 2.710613412838878 H 0.0 **** 0.06
4480 H 34.76947622535408 37.57634659445444 4.222354462176163 H 0.0 **** 0.06
4481 C 29.969516167729317 38.36262459453947 75.60775169876058 C 0.0 **** -0.24
4482 H 30.767796732034633 38.58458913696662 74.8998711143268 H 0.0 **** 0.06
4483 H 30.18478669388584 38.84609267930921 76.56118566110052 H 0.0 **** 0.06
4484 H 29.903158903544735 37.28415753145434 75.75374691076752 H 0.0 **** 0.06
4485 H 29.022790540740267 38.735115290265846 75.21689965921149 H 0.0 **** 0.06
4486 C 53.35596277136247 25.202381000293656 68.05704137393144 C 0.0 **** -0.24
4487 H 52.422694480966186 25.744129078990866 67.90141551838303 H 0.0 **** 0.06
4488 H 54.02592645906475 25.803118746734867 68.67302508201942 H 0.0 **** 0.06
4489 H 53.82643395102747 25.00530072584627 67.09335608708056 H 0.0 **** 0.06
4490 H 53.147971056437086 24.258099864622793 68.55934168738429 H 0.0 **** 0.06
4491 C 39.34995749861794 33.29157553710323 8.705262919987206 C 0.0 **** -0.24
4492 H 39.66137979478501 32.2934872613946 9.013666903884143 H 0.0 **** 0.06
4493 H 38.315574190221966 33.25749410629692 8.360242943627213 H 0.0 **** 0.06
4494 H 39.991996130453124 33.63837141265873 7.896617139458272 H 0.0 **** 0.06
4495 H 39.42923932420299 33.97364879176641 9.551169227604333 H 0.0 **** 0.06
4496 C 25.85458316998529 6.63124856898466 115.5281130049564 C 0.0 **** -0.24
4497 H 25.181979214309322 6.276587265903061 114.74699243084206 H 0.0 **** 0.06
4498 H 26.87430957905812 6.322270020345286 115.29698231010141 H 0.0 **** 0.06
4499 H 25.553359741282122 6.2062333210420775 116.48588937498272 H 0.0 **** 0.06
4500 H 25.807708259481203 7.718990989618021 115.58212448555062 H 0.0 **** 0.06
4501 C 42.57407469166705 36.52164225528577 102.37692255723061 C 0.0 **** -0.24
4502 H 41.80179592335815 37.14567040652969 101.92595639108492 H 0.0 **** 0.06
4503 H 43.43114912121003 36.463592922081375 101.70646768997335 H 0.0 **** 0.06
4504 H 42.176875956297145 35.52078954780808 102.5472372715235 H 0.0 **** 0.06
4505 H 42.88356849556453 36.95655561236606 103.32678990400422 H 0.0 **** 0.06
4506 C 122.79074644530897 78.54085385027577 35.783836845003 C 0.0 **** -0.24
4507 H 122.83178084561901 79.31702919634222 36.54744278485735 H 0.0 **** 0.06
4508 H 123.78667637671205 78.12076256139835 35.63926853616529 H 0.0 **** 0.06
4509 H 122.43740182355295 78.97058079356896 34.84729943217345 H 0.0 **** 0.06
4510 H 122.10756320522259 77.7537171565279 36.10308369955313 H 0.0 **** 0.06
4511 C 9.030413205640684 11.899554101289368 81.3878954455817 C 0.0 **** -0.24
4512 H 9.545349326217291 10.939788404110061 81.41631400331141 H 0.0 **** 0.06
4513 H 9.514750731398976 12.59175688148531 82.07696188240925 H 0.0 **** 0.06
4514 H 7.989374388580899 11.762260499452566 81.68257794002187 H 0.0 **** 0.06
4515 H 9.071009580403313 12.303997495897022 80.37640864526264 H 0.0 **** 0.06
4516 C 114.14640523582943 128.3180532294196 78.44180023324657 C 0.0 **** -0.24
4517 H 113.12085758835713 128.68596543148647 78.47337072989757 H 0.0 **** 0.06
4518 H 114.2994892932685 127.74720490319231 77.52679124453385 H 0.0 **** 0.06
4519 H 114.32896229024823 127.67756804703623 79.3053260098788 H 0.0 **** 0.06
4520 H 114.83563650889585 129.16173449888373 78.46405318752119 H 0.0 **** 0.06
4521 C 61.91219494328453 66.67186189606751 6.65716925270641 C 0.0 **** -0.24
4522 H 61.57742659634408 66.09655614883134 5.793829501033429 H 0.0 **** 0.06
4523 H 61.575156916358196 67.70400917965232 6.559141526250414 H 0.0 **** 0.06
4524 H 63.00028760162735 66.64722034859388 6.709849295960197 H 0.0 **** 0.06
4525 H 61.49438946805975 66.23775624369061 7.566103232033726 H 0.0 **** 0.06
4526 C 20.93510921789914 67.48977758485455 119.99162930782502 C 0.0 **** -0.24
4527 H 20.9218818226895 67.53115998201636 121.08081322251154 H 0.0 **** 0.06
4528 H 21.208136801494334 68.46723158398889 119.59429485471306 H 0.0 **** 0.06
4529 H 19.946735300380226 67.21208539664012 119.62715976062304 H 0.0 **** 0.06
4530 H 21.664299751449448 66.74795565388449 119.66532658270702 H 0.0 **** 0.06
4531 C 77.72846254358467 41.09274790854809 56.5841594684625 C 0.0 **** -0.24
4532 H 78.40693797568815 41.65150897629421 55.939914021807 H 0.0 **** 0.06
4533 H 76.71933974271724 41.13669089864663 56.17427990616295 H 0.0 **** 0.06
4534 H 77.7342565900484 41.52753821501188 57.58317840447805 H 0.0 **** 0.06
4535 H 78.05419530315874 40.05320402842963 56.63910334781508 H 0.0 **** 0.06
4536 C 10.513457108956572 5.761889224736159 82.60531771100017 C 0.0 **** -0.24
4537 H 11.10622341471884 5.777661865392215 83.52052011704016 H 0.0 **** 0.06
4538 H 10.675631776487876 6.687762160102643 82.05197620527503 H 0.0 **** 0.06
4539 H 9.45748680696181 5.66828876564885 82.85780674686988 H 0.0 **** 0.06
4540 H 10.817224645512567 4.913384793160532 81.99150779201628 H 0.0 **** 0.06
4541 C 17.777012419041228 20.658879925356388 75.75738177980895 C 0.0 **** -0.24
4542 H 18.095534479781975 21.642993472264607 75.41337408577533 H 0.0 **** 0.06
4543 H 16.859439643785265 20.374096994564923 75.24281892357612 H 0.0 **** 0.06
4544 H 17.59684862606457 20.690539499512226 76.83184850027408 H 0.0 **** 0.06
4545 H 18.556818768231494 19.928631556108655 75.54117021887339 H 0.0 **** 0.06
4546 C 123.40553146673705 127.24373605485182 96.36504973812421 C 0.0 **** -0.24
4547 H 124.38250067409666 127.70491111039101 96.51220214358159 H 0.0 **** 0.06
4548 H 123.36734947311584 126.29531930819533 96.90016452458156 H 0.0 **** 0.06
4549 H 123.24339326143519 127.0683589662993 95.30165041049969 H 0.0 **** 0.06
4550 H 122.62995371433692 127.90830005714268 96.74591966934884 H 0.0 **** 0.06
4551 C 82.20456475481089 101.1277547462603 63.66196543757357 C 0.0 **** -0.24
4552 H 81.96378194716118 101.8819472988376 62.91312749181449 H 0.0 **** 0.06
4553 H 82.83795058806382 101.57032219026298 64.43184892395527 H 0.0 **** 0.06
4554 H 82.73384683582765 100.30084070317918 63.18767044281617 H 0.0 **** 0.06
4555 H 81.2846882514421 100.7584851269927 64.11601087133491 H 0.0 **** 0.06
4556 C 98.87737903263124 78.8573843228437 11.696734143408264 C 0.0 **** -0.24
4557 H 98.17446688636437 78.85077338028975 12.530266331818638 H 0.0 **** 0.06
4558 H 99.84455187926622 78.4861640119168 12.035557436490166 H 0.0 **** 0.06
4559 H 98.98735563676007 79.87516595046719 11.323520092276226 H 0.0 **** 0.06
4560 H 98.50011399430136 78.21666523683496 10.8996524603036 H 0.0 **** 0.06
4561 C 2.9314783445095145 64.91418033718818 131.98638928135648 C 0.0 **** -0.24
4562 H 3.7607389285442423 65.45606540982818 131.5309515325579 H 0.0 **** 0.06
4563 H 2.581063342722018 64.14352101298745 131.2994703517968 H 0.0 **** 0.06
4564 H 2.118341459413557 65.60795714562883 132.20029397023026 H 0.0 **** 0.06
4565 H 3.2674933625040694 64.44927651902653 132.91342025412936 H 0.0 **** 0.06
4566 C 131.70144729572317 87.90151971468588 62.428466175122836 C 0.0 **** -0.24
4567 H 131.46246150219977 87.72820571207073 61.37961486587115 H 0.0 **** 0.06
4568 H 132.65038544706562 88.43448477221968 62.500221088035076 H 0.0 **** 0.06
4569 H 131.7807202948936 86.94587284740635 62.94611459907931 H 0.0 **** 0.06
4570 H 130.91320198708195 88.49867141202719 62.88626986441601 H 0.0 **** 0.06
4571 C 110.638934171438 45.16598203901907 30.845436593977112 C 0.0 **** -0.24
4572 H 109.74245075420544 45.20023481252599 30.226686019266566 H 0.0 **** 0.06
4573 H 111.34935431231608 45.91600506877694 30.49567981031413 H 0.0 **** 0.06
4574 H 111.09090325568513 44.17694947778358 30.7755254601511 H 0.0 **** 0.06
4575 H 110.372107854017 45.372458312641584 31.88237312591707 H 0.0 **** 0.06
4576 C 124.81839184438022 115.84514330769275 0.13464283213431827 C 0.0 **** -0.24
4577 H 123.74292216911067 115.73430613190692 0.2707131410098498 H 0.0 **** 0.06
4578 H 125.26507226556167 114.86745762183796 -0.046829956940200645 H 0.0 **** 0.06
4579 H 125.25422060836092 116.28256797260758 1.0328198795653805 H 0.0 **** 0.06
4580 H 125.01126690678815 116.49685989395164 -0.7168627239923353 H 0.0 **** 0.06
4581 C 56.559097860527885 93.49414259744765 129.33302946541914 C 0.0 **** -0.24
4582 H 55.71288617411547 93.9345268952884 129.85933209991384 H 0.0 **** 0.06
4583 H 57.4181259415534 93.44653860390423 130.00368419354214 H 0.0 **** 0.06
4584 H 56.80809530149875 94.10800497156583 128.4672250199965 H 0.0 **** 0.06
4585 H 56.29856238970146 92.48798465034821 129.0033363442657 H 0.0 **** 0.06
4586 C 21.53156003508866 98.08791084254722 8.283851442145632 C 0.0 **** -0.24
4587 H 20.466103021211666 97.91158254160717 8.428846984068791 H 0.0 **** 0.06
4588 H 21.672407033157924 99.00670271877948 7.713876258858299 H 0.0 **** 0.06
4589 H 21.967698251205604 97.25060960901135 7.737877796550695 H 0.0 **** 0.06
4590 H 22.019330375778907 98.18333516204501 9.253025974138971 H 0.0 **** 0.06
4591 C 85.61768756159563 0.594918872057093 126.20181874701008 C 0.0 **** -0.24
4592 H 85.26549155633666 -0.42064424661859334 126.38332797396163 H 0.0 **** 0.06
4593 H 86.5522952783289 0.5600619479191664 125.64303934627551 H 0.0 **** 0.06
4594 H 85.78180077335657 1.0972919038751172 127.15566690079221 H 0.0 **** 0.06
4595 H 84.86953643453433 1.141354514748798 125.6271796766075 H 0.0 **** 0.06
4596 C 10.734985997581418 37.774062140771036 135.20326460918216 C 0.0 **** -0.24
4597 H 11.318055826182217 36.93991330570651 135.59320991977535 H 0.0 **** 0.06
4598 H 9.933422051145271 38.014953302680794 135.90134321356732 H 0.0 **** 0.06
4599 H 10.3070053365131 37.49886669371739 134.23935585950548 H 0.0 **** 0.06
4600 H 11.382226316207266 38.64196182609237 135.07882125931934 H 0.0 **** 0.06
4601 C 26.590306648338697 136.05120787843396 41.13821545978027 C 0.0 **** -0.24
4602 H 27.36806997110847 135.45766435882877 40.65750829883214 H 0.0 **** 0.06
4603 H 27.017540260922033 136.59338050117924 41.98215525480107 H 0.0 **** 0.06
4604 H 25.798111874016058 135.3921588086534 41.49354323580965 H 0.0 **** 0.06
4605 H 26.178646996529153 136.7602114612397 40.42129480807266 H 0.0 **** 0.06
4606 C 70.08853915710802 35.08799613248286 108.99210321358629 C 0.0 **** -0.24
4607 H 70.8015702153834 34.299745363882806 108.74884504660406 H 0.0 **** 0.06
4608 H 70.01101630110523 35.78002518658542 108.15398029736039 H 0.0 **** 0.06
4609 H 70.42963743380841 35.62444833956124 109.87736478158502 H 0.0 **** 0.06
4610 H 69.11209564176858 34.64468583035929 109.1898003130861 H 0.0 **** 0.06
4611 C 87.34610327697413 129.00456079031267 64.54652074366413 C 0.0 **** -0.24
4612 H 87.49264528416217 128.05794817149763 65.06651694041045 H 0.0 **** 0.06
4613 H 86.48363662536504 128.9249175753148 63.88383125922053 H 0.0 **** 0.06
4614 H 88.23537744848794 129.23720812675901 63.96017719611507 H 0.0 **** 0.06
4615 H 87.17359706527779 129.79604054780663 65.27468719751357 H 0.0 **** 0.06
4616 C 63.98774110493645 70.17422046377722 79.9885872843285 C 0.0 **** -0.24
4617 H 63.62562495405041 69.50324336400739 79.20978199659041 H 0.0 **** 0.06
4618 H 63.14500729568789 70.71436414409139 80.42137550842045 H 0.0 **** 0.06
4619 H 64.69208608670192 70.88379957616836 79.55666066790167 H 0.0 **** 0.06
4620 H 64.48574949774292 69.59423161266245 80.76542550730682 H 0.0 **** 0.06
4621 C 103.43138946564292 134.83026142766 46.16530899428477 C 0.0 **** -0.24
4622 H 103.94170706650719 135.11360948225968 47.08572079189993 H 0.0 **** 0.06
4623 H 103.66059047831189 135.5566599777419 45.38443756465131 H 0.0 **** 0.06
4624 H 102.35521490451039 134.80844607303442 46.33817161305606 H 0.0 **** 0.06
4625 H 103.76937253461045 133.84184215660838 45.85287998686944 H 0.0 **** 0.06
4626 C 99.01324471755164 29.968680168348016 122.80983515703113 C 0.0 **** -0.24
4627 H 99.24677218914935 29.632750468168297 123.82019164021192 H 0.0 **** 0.06
4628 H 99.305888131909 31.013937576218467 122.69838578716724 H 0.0 **** 0.06
4629 H 97.9425057038861 29.87031830596949 122.63154056023808 H 0.0 **** 0.06
4630 H 99.5595904912812 29.35907005696221 122.08926945807751 H 0.0 **** 0.06
4631 C 27.00911884435996 4.711849438540526 42.256025087085106 C 0.0 **** -0.24
4632 H 28.02233174374328 4.6597055949733885 42.65647205601874 H 0.0 **** 0.06
4633 H 26.696388592626676 3.7192399972684598 41.931691375947366 H 0.0 **** 0.06
4634 H 26.988711414986994 5.3954136328155755 41.40767400568359 H 0.0 **** 0.06
4635 H 26.33161338688771 5.071961302479394 43.02937481415893 H 0.0 **** 0.06
4636 C 83.5571400156696 124.91757163616487 55.36799469856601 C 0.0 **** -0.24
4637 H 83.82421072328022 125.25062562978826 54.3650468739998 H 0.0 **** 0.06
4638 H 84.2756170205372 125.31324249252842 56.08528152399941 H 0.0 **** 0.06
4639 H 83.5686802656133 123.82859727555132 55.404473330158 H 0.0 **** 0.06
4640 H 82.55904113598282 125.27805601223145 55.615790334861 H 0.0 **** 0.06
4641 C 121.96903988334023 80.90835232251933 117.07204475219694 C 0.0 **** -0.24
4642 H 122.4803868276281 80.06614163931941 116.6041274459721 H 0.0 **** 0.06
4643 H 121.10118075792145 80.54496478100089 117.62237292194499 H 0.0 **** 0.06
4644 H 121.64486672246395 81.60814489003793 116.3024655572546 H 0.0 **** 0.06
4645 H 122.65102931009497 81.41128790169594 117.75719747850533 H 0.0 **** 0.06
4646 C 12.652284503546412 128.35541540493145 63.33519477509441 C 0.0 **** -0.24
4647 H 12.366363005025164 127.47494301458983 63.9107999676726 H 0.0 **** 0.06
4648 H 12.76750106611081 129.20672389297653 64.00579528610788 H 0.0 **** 0.06
4649 H 11.8780778906318 128.5742045171489 62.59867282556951 H 0.0 **** 0.06
4650 H 13.595690017405502 128.16391054163222 62.82372239618189 H 0.0 **** 0.06
4651 C 120.32081691479547 124.49341950070013 84.60333463171561 C 0.0 **** -0.24
4652 H 121.11856142316871 125.05267483662182 84.11379171890765 H 0.0 **** 0.06
4653 H 120.0439364391937 124.99406462903795 85.5318516116906 H 0.0 **** 0.06
4654 H 120.66866567774129 123.48383518394672 84.82428225560504 H 0.0 **** 0.06
4655 H 119.45471952608028 124.44395650613318 83.94497250461761 H 0.0 **** 0.06
4656 C 7.346095267635199 75.13251789200145 89.92592689558398 C 0.0 **** -0.24
4657 H 7.37315565306498 76.14877642246756 89.53321022946346 H 0.0 **** 0.06
4658 H 7.970027172493619 75.07104036395651 90.81820409786405 H 0.0 **** 0.06
4659 H 7.721862044402041 74.4409821132258 89.1706714830194 H 0.0 **** 0.06
4660 H 6.319695341818871 74.86800787294047 90.18110080863133 H 0.0 **** 0.06
4661 C 114.71117685869586 127.15517797319205 116.82072677627846 C 0.0 **** -0.24
4662 H 115.669681996957 127.58908883815667 117.10395509859748 H 0.0 **** 0.06
4663 H 114.84967466256396 126.4988832202788 115.9606194044897 H 0.0 **** 0.06
4664 H 114.01439078313194 127.9516844699059 116.56180096598183 H 0.0 **** 0.06
4665 H 114.31267064903366 126.57978820503268 117.6558473906477 H 0.0 **** 0.06
4666 C 84.6520726078831 63.79077704821957 43.300983904972895 C 0.0 **** -0.24
4667 H 84.66575835333043 64.76259955623459 43.79410332336707 H 0.0 **** 0.06
4668 H 83.88735127051444 63.16170472225677 43.75810250112551 H 0.0 **** 0.06
4669 H 85.62652664369125 63.3144234309074 43.40967904664265 H 0.0 **** 0.06
4670 H 84.4276935936636 63.92346955500052 42.24254834963523 H 0.0 **** 0.06
4671 C 112.38329186762326 28.15420860578641 19.91953302757635 C 0.0 **** -0.24
4672 H 111.35342554884687 28.488653301386705 19.801101195686698 H 0.0 **** 0.06
4673 H 113.0602353294517 28.923827722768806 19.548535681402058 H 0.0 **** 0.06
4674 H 112.53347405096775 27.233840947509663 19.35537459402059 H 0.0 **** 0.06
4675 H 112.58633929379144 27.96977456075291 20.975209096011753 H 0.0 **** 0.06
4676 C 8.282574249612367 25.941899866441815 31.317433051648813 C 0.0 **** -0.24
4677 H 8.653512465188243 26.929571224312383 31.046229948446737 H 0.0 **** 0.06
4678 H 8.680394687439275 25.20130384920958 30.623793022491633 H 0.0 **** 0.06
4679 H 7.19382250970105 25.936496696312815 31.269856833416902 H 0.0 **** 0.06
4680 H 8.602202842485696 25.69943247268384 32.331347361575276 H 0.0 **** 0.06
4681 C 29.280149281424904 126.98789654492901 56.36249599325507 C 0.0 **** -0.24
4682 H 29.487951607945973 125.93951188101312 56.14832584098377 H 0.0 **** 0.06
4683 H 29.682241777559014 127.60930769621882 55.56128818970822 H 0.0 **** 0.06
4684 H 29.747147226745895 127.2648217010231 57.30744330405503 H 0.0 **** 0.06
4685 H 28.20262702817422 127.13678685533984 56.43241402715023 H 0.0 **** 0.06
4686 C 74.12826872148591 98.57114624584875 82.98398422849395 C 0.0 **** -0.24
4687 H 74.71145074142206 97.70338892198555 82.6765041489856 H 0.0 **** 0.06
4688 H 74.76857407944053 99.45383856095194 82.99385538483368 H 0.0 **** 0.06
4689 H 73.7259013484101 98.40245861800219 83.98365173157926 H 0.0 **** 0.06
4690 H 73.30748666943418 98.72444260767315 82.28408847843338 H 0.0 **** 0.06
4691 C 86.84917339406421 25.222740515418245 14.861531082697674 C 0.0 **** -0.24
4692 H 86.26135715758114 25.893762775602006 15.488125269542813 H 0.0 **** 0.06
4693 H 86.86544861348762 24.229177363719984 15.309794905921521 H 0.0 **** 0.06
4694 H 87.86726140961075 25.60165887092002 14.778647543938234 H 0.0 **** 0.06
4695 H 86.40041396890524 25.166434559061997 13.869239930771585 H 0.0 **** 0.06
4696 C 61.65319905076635 23.106644902226833 50.63984694209705 C 0.0 **** -0.24
4697 H 61.13298550396456 23.39187630310269 51.55456055973798 H 0.0 **** 0.06
4698 H 60.94254239926897 22.66266049244217 49.942148534382454 H 0.0 **** 0.06
4699 H 62.43247761590274 22.382993836460116 50.87623233829123 H 0.0 **** 0.06
4700 H 62.10276203066746 23.99129643371495 50.1878005935709 H 0.0 **** 0.06
4701 C 77.49763628359267 87.53605756229906 58.26828282101417 C 0.0 **** -0.24
4702 H 77.95517615844204 86.71596264980484 57.7148664657131 H 0.0 **** 0.06
4703 H 78.19093807232781 88.37648920718549 58.30922629571097 H 0.0 **** 0.06
4704 H 77.26570713460421 87.20661251108794 59.281523133404164 H 0.0 **** 0.06
4705 H 76.58038452484402 87.8450927802537 57.76702888607457 H 0.0 **** 0.06
4706 C 96.14329717388266 98.52532019458138 46.836707601200146 C 0.0 **** -0.24
4707 H 96.20072579708716 97.50127028864219 46.468087479856976 H 0.0 **** 0.06
4708 H 95.89997182718938 98.51498541980175 47.89951664606036 H 0.0 **** 0.06
4709 H 95.3689651138134 99.06457948407893 46.29080435416057 H 0.0 **** 0.06
4710 H 97.10353586837735 99.01910121561221 46.687982990493694 H 0.0 **** 0.06
4711 C 27.274471632895825 48.76996078779709 55.636601102549676 C 0.0 **** -0.24
4712 H 26.793586805186862 49.40091456071984 54.889477849681384 H 0.0 **** 0.06
4713 H 26.52874211852526 48.414038502362274 56.346992438149016 H 0.0 **** 0.06
4714 H 28.033490694157706 49.34736875910366 56.16495343507346 H 0.0 **** 0.06
4715 H 27.744407965026653 47.917871435206465 55.144350463150374 H 0.0 **** 0.06
4716 C 89.53622549345552 96.75495897857736 44.4643158380068 C 0.0 **** -0.24
4717 H 90.43382969923036 96.31812111905471 44.02722956367808 H 0.0 **** 0.06
4718 H 88.85176761066064 97.0515705848024 43.66895549959534 H 0.0 **** 0.06
4719 H 89.80940310584512 97.6300787517965 45.054909175386484 H 0.0 **** 0.06
4720 H 89.05046937361384 96.02087610946244 45.10631221173546 H 0.0 **** 0.06
4721 C 47.285395815518385 91.70403548116155 57.42835935312806 C 0.0 **** -0.24
4722 H 46.72309193947849 90.78351239023522 57.58238731640559 H 0.0 **** 0.06
4723 H 47.87387253902732 91.9239255164544 58.32004969024699 H 0.0 **** 0.06
4724 H 46.59435135657543 92.52416709536607 57.23697050267347 H 0.0 **** 0.06
4725 H 47.95251692569215 91.58357211440813 56.57412570949252 H 0.0 **** 0.06
4726 C 22.12926642406086 83.96637107225689 90.37715450609213 C 0.0 **** -0.24
4727 H 21.08369970988599 83.66017841907237 90.38452450862465 H 0.0 **** 0.06
4728 H 22.66809610230547 83.43624120321911 91.16279690892304 H 0.0 **** 0.06
4729 H 22.194852832612867 85.04025939826471 90.55345360441687 H 0.0 **** 0.06
4730 H 22.570785705310186 83.72908099172648 89.40918022478738 H 0.0 **** 0.06
4731 C 136.00294404002423 121.32769398831852 98.33611560506966 C 0.0 **** -0.24
4732 H 135.6025311314148 121.62374869414094 97.36687201152262 H 0.0 **** 0.06
4733 H 137.07707766067563 121.16330730813007 98.2504590398355 H 0.0 **** 0.06
4734 H 135.51833190218312 120.40781759890808 98.66327850609633 H 0.0 **** 0.06
4735 H 135.81290603503535 122.11736093704917 99.0637589086765 H 0.0 **** 0.06
4736 C 54.36855785116421 1.8395431827503899 130.1366515486354 C 0.0 **** -0.24
4737 H 54.672027659197596 1.4927519702262373 129.1487451753773 H 0.0 **** 0.06
4738 H 54.934404783967864 2.73517491327965 130.39690758610587 H 0.0 **** 0.06
4739 H 54.564969224933236 1.0589387765093932 130.87159671211873 H 0.0 **** 0.06
4740 H 53.30356367586978 2.071873857307736 130.12828892927146 H 0.0 **** 0.06
4741 C 105.88305265581266 28.219141599421633 64.39057137776615 C 0.0 **** -0.24
4742 H 106.72503113924955 28.45336146145665 65.04115826875919 H 0.0 **** 0.06
4743 H 105.37561418345769 27.327549504313026 64.75924848063215 H 0.0 **** 0.06
4744 H 106.24454733937995 28.039053818058875 63.37854518752118 H 0.0 **** 0.06
4745 H 105.18480330305951 29.05671466853795 64.38362121951477 H 0.0 **** 0.06
4746 C 134.27209175750144 13.636317451432909 113.74218164539667 C 0.0 **** -0.24
4747 H 133.55659034999883 12.828488765302467 113.89745764641631 H 0.0 **** 0.06
4748 H 133.8188648007568 14.410018964147902 113.12224909422963 H 0.0 **** 0.06
4749 H 135.1595466276766 13.244696922326128 113.24428475767272 H 0.0 **** 0.06
4750 H 134.55502213107735 14.060737436573696 114.70543661630106 H 0.0 **** 0.06
4751 C 21.976022711733847 126.36523743028991 50.8673252090463 C 0.0 **** -0.24
4752 H 22.895052081168217 126.26276118451477 50.29116147217934 H 0.0 **** 0.06
4753 H 21.293908604598144 125.55531259314701 50.6099808168116 H 0.0 **** 0.06
4754 H 21.5067797690578 127.3226166620785 50.63651528984764 H 0.0 **** 0.06
4755 H 22.208146090874806 126.32224480393643 51.93151618757963 H 0.0 **** 0.06
4756 C 23.171730537820366 62.57959065803527 33.03391320752121 C 0.0 **** -0.24
4757 H 23.040254263764496 63.61301503336534 32.7103947447747 H 0.0 **** 0.06
4758 H 24.15135480681772 62.465295176439426 33.49670996741884 H 0.0 **** 0.06
4759 H 23.09639987196158 61.917367295649385 32.17062320122341 H 0.0 **** 0.06
4760 H 22.39625955217744 62.32391389597029 33.755815690408554 H 0.0 **** 0.06
4761 C 34.84140850487293 131.26648511463665 55.86160975275159 C 0.0 **** -0.24
4762 H 35.202405008851706 131.6135836190335 56.82944299569837 H 0.0 **** 0.06
4763 H 35.49025240767431 130.4705702876127 55.49576791560048 H 0.0 **** 0.06
4764 H 34.848337036177654 132.0948680374448 55.15306208326115 H 0.0 **** 0.06
4765 H 33.825731120397926 130.88775101370197 55.96782609231576 H 0.0 **** 0.06
4766 C 89.78316423488644 31.007578654478152 112.42449306871407 C 0.0 **** -0.24
4767 H 90.65239650810844 31.07301917517409 111.76905663589321 H 0.0 **** 0.06
4768 H 88.89530685953497 31.33442320132867 111.88427280627778 H 0.0 **** 0.06
4769 H 89.93660355440511 31.64620225871944 113.29424723959337 H 0.0 **** 0.06
4770 H 89.65109667753171 29.97600296610384 112.75050198058813 H 0.0 **** 0.06
4771 C 47.966517056348806 4.304958015130502 83.834767066969 C 0.0 **** -0.24
4772 H 48.36421838521673 3.749901240269928 82.98562063993504 H 0.0 **** 0.06
4773 H 47.424702251607584 5.179576437141122 83.4739964727172 H 0.0 **** 0.06
4774 H 48.787065987480474 4.624096098954368 84.47634896781561 H 0.0 **** 0.06
4775 H 47.28960326751735 3.6655837179113995 84.40079644773257 H 0.0 **** 0.06
4776 C 15.596868980055405 64.06908871862929 122.05697573308514 C 0.0 **** -0.24
4777 H 14.947807010335538 64.84768855334138 122.45790705551923 H 0.0 **** 0.06
4778 H 16.035748250279482 63.50218645764471 122.87918006477996 H 0.0 **** 0.06
4779 H 16.39130524430425 64.52582051103434 121.46651221467901 H 0.0 **** 0.06
4780 H 15.013436105389161 63.39914277943994 121.42446673222656 H 0.0 **** 0.06
4781 C 42.99200379889672 100.70772603870043 23.822477685519345 C 0.0 **** -0.24
4782 H 43.58786717734324 99.92559576052861 23.35031648542474 H 0.0 **** 0.06
4783 H 42.76142050677106 100.4181277318788 24.847533885345285 H 0.0 **** 0.06
4784 H 42.0657049217682 100.84389533540458 23.2650125840687 H 0.0 **** 0.06
4785 H 43.556097257517166 101.64061360156404 23.825860717178898 H 0.0 **** 0.06
4786 C 121.34938324531703 113.95463700598222 82.67369437441745 C 0.0 **** -0.24
4787 H 120.3639589992789 114.411708929236 82.57724009159466 H 0.0 **** 0.06
4788 H 121.8299394119303 113.91852585895049 81.6952333950415 H 0.0 **** 0.06
4789 H 121.24325237628454 112.94205741754988 83.06377117092819 H 0.0 **** 0.06
4790 H 121.95878510388411 114.54592048651202 83.35737653481183 H 0.0 **** 0.06
4791 C 110.2059671899645 19.343592022966902 133.63447182886475 C 0.0 **** -0.24
4792 H 111.15091635359846 19.88752059468078 133.6542935042109 H 0.0 **** 0.06
4793 H 109.40705361406326 20.0155218104008 133.31823046895124 H 0.0 **** 0.06
4794 H 109.9856713700353 18.961462321564795 134.6313728856645 H 0.0 **** 0.06
4795 H 110.27997783490366 18.51184749820129 132.9340237418428 H 0.0 **** 0.06
4796 C 60.14361612971739 120.7518129256537 81.78566079653206 C 0.0 **** -0.24
4797 H 61.154288084611935 120.83527690974516 82.18488505803083 H 0.0 **** 0.06
4798 H 59.4657825252351 121.3645308487574 82.38103586415988 H 0.0 **** 0.06
4799 H 59.82246069812811 119.71176334280798 81.82480202569559 H 0.0 **** 0.06
4800 H 60.132093086197685 121.09786379326133 80.75237668593732 H 0.0 **** 0.06
4801 C 1.2834898999007294 1.8089381279187933 130.55604280950558 C 0.0 **** -0.24
4802 H 2.208561192168986 2.343971630721608 130.34334048721746 H 0.0 **** 0.06
4803 H 1.28488677351001 1.4795687049236506 131.59542913161306 H 0.0 **** 0.06
4804 H 1.2060912208853551 0.9414928462093783 129.90026143736242 H 0.0 **** 0.06
4805 H 0.4340326397244496 2.4698338211652953 130.3848841493607 H 0.0 **** 0.06
4806 C 108.15073089751746 74.54333136316696 40.06620333893623 C 0.0 **** -0.24
4807 H 108.7113093056063 73.60781531258839 40.05196604095359 H 0.0 **** 0.06
4808 H 107.67428276307793 74.6956261928175 39.097167439692875 H 0.0 **** 0.06
4809 H 108.83097054897438 75.36989976154534 40.27129540771914 H 0.0 **** 0.06
4810 H 107.38902750280901 74.49762932305647 40.84379723659241 H 0.0 **** 0.06
4811 C 7.323624240590334 41.058485208445255 43.79702688308993 C 0.0 **** -0.24
4812 H 7.257744061247706 40.28771126584185 44.56422134543833 H 0.0 **** 0.06
4813 H 6.337563304222243 41.22600669085016 43.36348743231477 H 0.0 **** 0.06
4814 H 8.013293223628892 40.73690768337423 43.01702071547811 H 0.0 **** 0.06
4815 H 7.686129121190135 41.98481915186948 44.24255094946582 H 0.0 **** 0.06
4816 C 12.188310706184723 53.50346742993301 121.86904636714421 C 0.0 **** -0.24
4817 H 11.414212911547565 52.79593260632038 121.57033047514956 H 0.0 **** 0.06
4818 H 12.594249743036926 53.992405586387946 120.98304745427602 H 0.0 **** 0.06
4819 H 12.986054116890102 52.97118858557272 122.38784283948848 H 0.0 **** 0.06
4820 H 11.758629543046254 54.25263848529556 122.53352048820864 H 0.0 **** 0.06
4821 C 33.22081630862291 126.28273921196933 38.50456914394195 C 0.0 **** -0.24
4822 H 34.166586862464584 126.49246359587494 38.00416646643127 H 0.0 **** 0.06
4823 H 33.174188676813166 125.22497145145019 38.76623373091615 H 0.0 **** 0.06
4824 H 32.395032018765455 126.52837250884556 37.83679923209737 H 0.0 **** 0.06
4825 H 33.14709515637811 126.8856858280659 39.410315073964334 H 0.0 **** 0.06
4826 C 134.39821109165996 112.54296489345393 112.42491896620092 C 0.0 **** -0.24
4827 H 134.35398281029245 112.43689747760249 111.34069912973993 H 0.0 **** 0.06
4828 H 135.4010598279182 112.85717926343594 112.71745937780221 H 0.0 **** 0.06
4829 H 134.16492343727376 111.5872492559572 112.89371372766729 H 0.0 **** 0.06
4830 H 133.674540806927 113.29186875647193 112.74659797015377 H 0.0 **** 0.06
4831 C 76.56555076143832 21.441222988287848 112.93289745899591 C 0.0 **** -0.24
4832 H 76.76931814927906 21.016221455123514 113.9159298230295 H 0.0 **** 0.06
4833 H 77.3011971669182 22.2149032242757 112.71262415492112 H 0.0 **** 0.06
4834 H 75.56610031441818 21.876275757665667 112.92562014218811 H 0.0 **** 0.06
4835 H 76.62616424332913 20.65646103019327 112.1786828019116 H 0.0 **** 0.06
4836 C 59.659974756952295 91.53512290829252 68.99265369333145 C 0.0 **** -0.24
4837 H 59.44994302129135 91.80117732208151 70.02826450230287 H 0.0 **** 0.06
4838 H 60.57832821607826 92.02804293489896 68.67141095028558 H 0.0 **** 0.06
4839 H 58.83321385625845 91.85804134538955 68.35977284411925 H 0.0 **** 0.06
4840 H 59.77932342374004 90.45494141635697 68.91166061587339 H 0.0 **** 0.06
4841 C 40.863279404929735 121.77847323390556 121.81189603510057 C 0.0 **** -0.24
4842 H 41.902431874804265 121.62192552921768 122.10240602108655 H 0.0 **** 0.06
4843 H 40.387232509767884 120.81343583353014 121.63406943989861 H 0.0 **** 0.06
4844 H 40.82735109971486 122.37599764936468 120.90169235945206 H 0.0 **** 0.06
4845 H 40.33816750049928 122.30138532169512 122.61213947686747 H 0.0 **** 0.06
4846 C 20.62259196927846 45.79182144909501 127.62222970932096 C 0.0 **** -0.24
4847 H 20.621047218023293 45.06656838140227 126.80820103158689 H 0.0 **** 0.06
4848 H 21.150658208759594 46.69144505431255 127.30693230414273 H 0.0 **** 0.06
4849 H 21.12321408535187 45.361422792135066 128.49004915789564 H 0.0 **** 0.06
4850 H 19.59507190568096 46.04566146242182 127.88400224173853 H 0.0 **** 0.06
4851 C 119.90694443456613 38.49918920358214 70.65188886799496 C 0.0 **** -0.24
4852 H 120.71641323661053 38.78671904321331 69.98136229533046 H 0.0 **** 0.06
4853 H 118.95021085124056 38.64138552363817 70.14775079797718 H 0.0 **** 0.06
4854 H 119.94130534663407 39.11764766334197 71.54914443505868 H 0.0 **** 0.06
4855 H 120.01984830377894 37.451004584135184 70.92929794361346 H 0.0 **** 0.06
4856 C 7.841016634183205 83.70454065214975 68.4119617167969 C 0.0 **** -0.24
4857 H 8.839125578495327 83.47087060736283 68.03903144098626 H 0.0 **** 0.06
4858 H 7.09569929805366 83.34868242056007 67.70112065293745 H 0.0 **** 0.06
4859 H 7.742985789107365 84.78325851468796 68.53377217310879 H 0.0 **** 0.06
4860 H 7.68997854496547 83.21497863875476 69.37386221867587 H 0.0 **** 0.06
4861 C 121.83606035013473 88.82965951122306 90.65441731682769 C 0.0 **** -0.24
4862 H 121.73742706693594 89.90845715920287 90.77749533608569 H 0.0 **** 0.06
4863 H 120.84630487647127 88.37200243756617 90.66178035267852 H 0.0 **** 0.06
4864 H 122.43100195534589 88.42350757914774 91.47106537501791 H 0.0 **** 0.06
4865 H 122.3275702758 88.61730258630168 89.70462227418157 H 0.0 **** 0.06
4866 C 74.51420812026748 25.70100039947485 16.007233635317107 C 0.0 **** -0.24
4867 H 74.51228654168062 25.35498279478128 14.973175499331319 H 0.0 **** 0.06
4868 H 75.39860935628954 26.3146476680904 16.182689073160248 H 0.0 **** 0.06
4869 H 74.52746057740606 24.842775742872675 16.677781763548467 H 0.0 **** 0.06
4870 H 73.61836040132619 26.294193467476703 16.192597984214103 H 0.0 **** 0.06
4871 C 106.47043755502317 119.269342334931 105.87767401698915 C 0.0 **** -0.24
4872 H 105.59292959297427 119.88328025925057 105.67536471751299 H 0.0 **** 0.06
4873 H 107.31500351920184 119.6407480197108 105.29652924053573 H 0.0 **** 0.06
4874 H 106.26406194526051 118.23624219137571 105.5980935087374 H 0.0 **** 0.06
4875 H 106.71061447378013 119.31760000936458 106.93970334706916 H 0.0 **** 0.06
4876 C 44.726221967298926 10.809925474219604 76.74643041874319 C 0.0 **** -0.24
4877 H 43.917954216731175 10.632000165272185 77.45517356766612 H 0.0 **** 0.06
4878 H 44.4487268346993 10.409931813925425 75.77060480040589 H 0.0 **** 0.06
4879 H 45.63268607325507 10.31599354485962 77.09705722603034 H 0.0 **** 0.06
4880 H 44.905520744510284 11.881776372821086 76.6628860808703 H 0.0 **** 0.06
4881 C 65.58249567593963 117.05397547809147 57.80918150612354 C 0.0 **** -0.24
4882 H 66.51549593921108 116.7470265019358 58.28133177337628 H 0.0 **** 0.06
4883 H 65.61715659402051 118.123251455178 57.596986699711735 H 0.0 **** 0.06
4884 H 64.74937343620768 116.84353083434479 58.48083879399046 H 0.0 **** 0.06
4885 H 65.44826233782054 116.50257738758592 56.87886188733067 H 0.0 **** 0.06
4886 C 23.73437511674004 132.57860760954995 25.82783876600655 C 0.0 **** -0.24
4887 H 24.601794423356452 132.20057986590015 26.370199252262353 H 0.0 **** 0.06
4888 H 23.15630233615893 133.23359303986751 26.479607898798918 H 0.0 **** 0.06
4889 H 23.113948260256507 131.74178597885557 25.508700728185204 H 0.0 **** 0.06
4890 H 24.068463076800512 133.13813183259984 24.953763272787285 H 0.0 **** 0.06
4891 C 41.34588924940056 61.15654026289974 114.11358934259658 C 0.0 **** -0.24
4892 H 42.02595687718866 60.38301043496338 113.75574059583681 H 0.0 **** 0.06
4893 H 40.37616785368624 60.7113307801047 114.33797746820119 H 0.0 **** 0.06
4894 H 41.227484888579056 61.91989657907283 113.34429640475466 H 0.0 **** 0.06
4895 H 41.755501106147335 61.61053414348686 115.015532640271 H 0.0 **** 0.06
4896 C 97.34752827085998 117.34880059185227 80.44633408508187 C 0.0 **** -0.24
4897 H 97.08149272392185 118.4048072148916 80.41164811453925 H 0.0 **** 0.06
4898 H 96.60160245090341 116.7674677308919 79.90371739770266 H 0.0 **** 0.06
4899 H 97.38195032694307 117.01674438073661 81.48465866068658 H 0.0 **** 0.06
4900 H 98.32480191946206 117.20438019968694 79.98660809136406 H 0.0 **** 0.06
4901 C 86.06551880292574 4.788881954997578 113.83666492516937 C 0.0 **** -0.24
4902 H 86.83953915935098 5.008193194269069 113.10018668403899 H 0.0 **** 0.06
4903 H 85.76006004369827 5.7126846727426255 114.32835137411575 H 0.0 **** 0.06
4904 H 86.45761790324477 4.094508582158539 114.57945692489386 H 0.0 **** 0.06
4905 H 85.20656501080532 4.3405341521381615 113.33727459945533 H 0.0 **** 0.06
4906 C 98.18484036269452 86.4171397159796 39.54708193228082 C 0.0 **** -0.24
4907 H 98.01256630523181 85.76845388157005 38.68812418742826 H 0.0 **** 0.06
4908 H 99.17562315999707 86.2190453382131 39.95784853060357 H 0.0 **** 0.06
4909 H 97.42967085062455 86.22026475112668 40.30826544090161 H 0.0 **** 0.06
4910 H 98.12341789928138 87.45932786357525 39.234506843626264 H 0.0 **** 0.06
4911 C 90.56774849944145 96.44750037698888 34.923319869868266 C 0.0 **** -0.24
4912 H 90.53341804637057 97.45962630555964 34.51945031952165 H 0.0 **** 0.06
4913 H 90.66545218196984 96.49276067081271 36.00798505214225 H 0.0 **** 0.06
4914 H 91.42186062833679 95.9171291981208 34.50244110083462 H 0.0 **** 0.06
4915 H 89.64925709289076 95.92131935870525 34.662862302239326 H 0.0 **** 0.06
4916 C 121.46025020350493 107.33371154035979 110.724618493408 C 0.0 **** -0.24
4917 H 121.39168256447564 106.98078325191517 111.75391932045869 H 0.0 **** 0.06
4918 H 122.05922999983358 108.24344464359524 110.69186308575956 H 0.0 **** 0.06
4919 H 120.45919036640399 107.54258184814267 110.34523144548837 H 0.0 **** 0.06
4920 H 121.92882445399638 106.566757083796 110.10771403828431 H 0.0 **** 0.06
4921 C 104.42159041523274 62.12983052593424 116.45589580506692 C 0.0 **** -0.24
4922 H 104.10704390943141 63.14781218459321 116.2255006885822 H 0.0 **** 0.06
4923 H 105.27039626227028 61.860474069762674 115.82656612937163 H 0.0 **** 0.06
4924 H 103.59630229117619 61.44333208176239 116.26749344362477 H 0.0 **** 0.06
4925 H 104.71253846437432 62.06865034366193 117.50433524415874 H 0.0 **** 0.06
4926 C 107.74268380384888 84.02052507546921 92.75385115493722 C 0.0 **** -0.24
4927 H 107.85581251199326 83.99046688087583 93.83770560915136 H 0.0 **** 0.06
4928 H 108.15023199389273 83.10574538294196 92.32127892004878 H 0.0 **** 0.06
4929 H 108.27968002406178 84.88097721377102 92.35632231653857 H 0.0 **** 0.06
4930 H 106.68589946746597 84.10310644884254 92.50149583475817 H 0.0 **** 0.06
4931 C 101.24639326497294 61.86959864933098 6.979980437990228 C 0.0 **** -0.24
4932 H 102.07183990579473 61.4260380747956 6.424389886547278 H 0.0 **** 0.06
4933 H 101.15159275602001 62.922416970666475 6.7112229654232785 H 0.0 **** 0.06
4934 H 101.4398833845312 61.78321985413436 8.049038118598443 H 0.0 **** 0.06
4935 H 100.32131233295308 61.34703731554464 6.735188660466363 H 0.0 **** 0.06
4936 C 78.36457467454562 75.0930925829019 21.20002263338582 C 0.0 **** -0.24
4937 H 78.87947280458665 74.74125434598989 22.094576645464926 H 0.0 **** 0.06
4938 H 77.51667243464023 74.44211719511688 20.989402477725505 H 0.0 **** 0.06
4939 H 79.0538351699797 75.07779726493044 20.355643516385307 H 0.0 **** 0.06
4940 H 78.01122057659622 76.11114321873737 21.361722401978163 H 0.0 **** 0.06
4941 C 23.14697961404471 38.84098979371641 128.6433146240857 C 0.0 **** -0.24
4942 H 22.088268430231153 38.60360310894064 128.53848973202204 H 0.0 **** 0.06
4943 H 23.311865299528534 39.34974978190427 129.5940538794274 H 0.0 **** 0.06
4944 H 23.456326124058478 39.491464049745126 127.82463331563892 H 0.0 **** 0.06
4945 H 23.72994767188669 37.92055786410314 128.61692614786327 H 0.0 **** 0.06
4946 C 102.77532121934674 117.7785768046974 71.05074584298734 C 0.0 **** -0.24
4947 H 101.94241262092531 117.81713872403853 70.34763036450693 H 0.0 **** 0.06
4948 H 102.38881634256296 117.73455453986026 72.06920158783834 H 0.0 **** 0.06
4949 H 103.38994529977167 118.67130718019516 70.93365274341312 H 0.0 **** 0.06
4950 H 103.37757354434554 116.89279598922985 70.85191051455072 H 0.0 **** 0.06
4951 C 127.27734625221345 83.58286430081063 64.54700004097703 C 0.0 **** -0.24
4952 H 127.00674472512172 83.23312275906538 65.54338788717479 H 0.0 **** 0.06
4953 H 127.09219249078224 82.79083673643557 63.82194387323949 H 0.0 **** 0.06
4954 H 128.33429680755387 83.84981368026627 64.53070155567559 H 0.0 **** 0.06
4955 H 126.67773698232749 84.45705236958715 64.29372352084533 H 0.0 **** 0.06
4956 C 133.86990560098616 120.79772532456911 36.43587884147891 C 0.0 **** -0.24
4957 H 133.06248262697076 120.19385308298735 36.85013422563031 H 0.0 **** 0.06
4958 H 134.44338699064252 121.24410945884011 37.24887417265859 H 0.0 **** 0.06
4959 H 133.45055227768032 121.58600025832146 35.81188331945964 H 0.0 **** 0.06
4960 H 134.52323934316084 120.1656426804654 35.8341466497607 H 0.0 **** 0.06
4961 C 70.68729271433223 28.331773921281865 130.23698340056745 C 0.0 **** -0.24
4962 H 71.48965583557049 28.39914763671925 129.50189817246167 H 0.0 **** 0.06
4963 H 69.95490161672652 27.594334347025665 129.90816395597 H 0.0 **** 0.06
4964 H 70.20491720377511 29.303365223768765 130.33823662356372 H 0.0 **** 0.06
4965 H 71.10072014917871 28.029231411536387 131.19867712051771 H 0.0 **** 0.06
4966 C 19.870435756642387 135.70856898751805 96.39419124803095 C 0.0 **** -0.24
4967 H 20.147799088446995 135.9587260043495 95.3703030219386 H 0.0 **** 0.06
4968 H 20.46462247085193 136.30504963200633 97.08685644551295 H 0.0 **** 0.06
4969 H 20.05654703188266 134.64987221023557 96.57304806046874 H 0.0 **** 0.06
4970 H 18.81165431826559 135.92198189397936 96.54517441660846 H 0.0 **** 0.06
4971 C 51.61800688194616 69.81738485683124 82.89620246313882 C 0.0 **** -0.24
4972 H 52.03700458682128 69.11049751860719 83.6110641221818 H 0.0 **** 0.06
4973 H 51.50474446388549 70.79232934446858 83.37183046947223 H 0.0 **** 0.06
4974 H 50.64306440583971 69.46128376300081 82.56146629866379 H 0.0 **** 0.06
4975 H 52.285908619038395 69.90669397425515 82.03914690096815 H 0.0 **** 0.06
4976 C 8.262364495857355 43.25201499684485 93.1211868026154 C 0.0 **** -0.24
4977 H 7.988967477752567 44.170569600167454 93.64164874335529 H 0.0 **** 0.06
4978 H 9.347847354884607 43.16994346919506 93.07558809711514 H 0.0 **** 0.06
4979 H 7.855331103061246 43.273919818516276 92.10951090133369 H 0.0 **** 0.06
4980 H 7.854382350576088 42.39572885320894 93.65798905546706 H 0.0 **** 0.06
4981 C 12.328113193933746 24.139116003541517 69.69060299108033 C 0.0 **** -0.24
4982 H 11.494337353428136 23.459317688716425 69.86446539227438 H 0.0 **** 0.06
4983 H 11.94326007106639 25.12889575799872 69.44200443581941 H 0.0 **** 0.06
4984 H 12.934118682502117 23.766196689447355 68.86501617813987 H 0.0 **** 0.06
4985 H 12.939332664252788 24.202186365789828 70.59103231166591 H 0.0 **** 0.06
4986 C 90.72562016810595 61.739741330415285 15.35009070633265 C 0.0 **** -0.24
4987 H 91.26466606493523 61.91372566754272 16.281590063984652 H 0.0 **** 0.06
4988 H 91.42071906872847 61.3807138143777 14.59025724857105 H 0.0 **** 0.06
4989 H 90.2689259938939 62.671416331641055 15.015138147554012 H 0.0 **** 0.06
4990 H 89.94957306330465 60.99302108905209 15.514388531430939 H 0.0 **** 0.06
4991 C 112.05066220363005 28.22412392756607 95.10235645160166 C 0.0 **** -0.24
4992 H 112.72288869831118 28.239065548628503 95.96011477331608 H 0.0 **** 0.06
4993 H 111.6322581796062 29.21948107163957 94.95035866449892 H 0.0 **** 0.06
4994 H 111.24343497668815 27.514375298614297 95.28596526001022 H 0.0 **** 0.06
4995 H 112.60408306323723 27.921921724466024 94.21246695992204 H 0.0 **** 0.06
4996 C 63.470246283624505 103.12295721279922 34.912741901849635 C 0.0 **** -0.24
4997 H 63.79959810705503 103.64049674785814 34.011975423092004 H 0.0 **** 0.06
4998 H 62.97483611421896 103.83031177694711 35.57833515498849 H 0.0 **** 0.06
4999 H 64.33263368783884 102.69091143409592 35.419711762072616 H 0.0 **** 0.06
5000 H 62.77391722538508 102.33010889229544 34.64094526724545 H 0.0 **** 0.06
5001 C 133.57313411830737 16.97950975174956 117.12535737211604 C 0.0 **** -0.24
5002 H 133.75752017576582 16.092329847009864 116.5190169647459 H 0.0 **** 0.06
5003 H 132.99338796493947 16.702315115164737 118.00658302867268 H 0.0 **** 0.06
5004 H 133.016944655667 17.711454382844863 116.53915567540705 H 0.0 **** 0.06
5005 H 134.524376176492 17.410735674972415 117.43734906145275 H 0.0 **** 0.06
5006 C 34.26844546259552 51.590011494227724 17.65291926539166 C 0.0 **** -0.24
5007 H 34.65986348301687 51.75025929863148 16.648605763574082 H 0.0 **** 0.06
5008 H 35.05546396410861 51.780549475969366 18.383150226430395 H 0.0 **** 0.06
5009 H 33.92474056274581 50.55933969101976 17.74847921927374 H 0.0 **** 0.06
5010 H 33.4343790701075 52.26926528187998 17.831044609412274 H 0.0 **** 0.06
5011 C 57.594432441701 116.73037372211104 101.3728852208028 C 0.0 **** -0.24
5012 H 57.0465572210654 117.02780480235458 102.26808835187884 H 0.0 **** 0.06
5013 H 57.03492835691942 115.95845741233092 100.84492364041489 H 0.0 **** 0.06
5014 H 58.57157894048326 116.34210242069247 101.65779593542112 H 0.0 **** 0.06
5015 H 57.722110822250315 117.59542856118031 100.72301187521381 H 0.0 **** 0.06
5016 C 74.36336459730046 136.39976705985538 91.50825632571414 C 0.0 **** -0.24
5017 H 73.98515536301613 137.3530730021444 91.13827572355757 H 0.0 **** 0.06
5018 H 74.38839599097798 135.6775858596264 90.691758414236 H 0.0 **** 0.06
5019 H 73.7089103530879 136.0324224386586 92.29868192611741 H 0.0 **** 0.06
5020 H 75.36944090793259 136.53750655323137 91.90318202231981 H 0.0 **** 0.06
5021 C 117.79852646495578 99.31099125553055 114.26499535254874 C 0.0 **** -0.24
5022 H 118.58763674846406 99.44901980874766 113.52444944854315 H 0.0 **** 0.06
5023 H 117.59807917083333 100.25989686018016 114.76259770637591 H 0.0 **** 0.06
5024 H 118.11622898581513 98.57305440888416 115.00130938827431 H 0.0 **** 0.06
5025 H 116.89282691565245 98.96276625540224 113.76802477249566 H 0.0 **** 0.06
5026 C 87.4376066720709 6.2048855410942565 51.90985083448456 C 0.0 **** -0.24
5027 H 86.42688366078659 6.514479538318938 52.17767850543788 H 0.0 **** 0.06
5028 H 87.89927309637551 5.701457668040234 52.75932923630859 H 0.0 **** 0.06
5029 H 88.02690966110589 7.08198802117721 51.642384407723796 H 0.0 **** 0.06
5030 H 87.39440011246222 5.522665324139098 51.061473688891795 H 0.0 **** 0.06
5031 C 115.66763744934809 51.43889511606851 9.777519033075606 C 0.0 **** -0.24
5032 H 116.04372079607447 51.23159387594153 8.776136223528283 H 0.0 **** 0.06
5033 H 115.5914020017201 50.507211512246855 10.337532292756606 H 0.0 **** 0.06
5034 H 114.68250593056041 51.901867527191 9.706853774766387 H 0.0 **** 0.06
5035 H 116.35108960757861 52.11651312192559 10.289814920256077 H 0.0 **** 0.06
5036 C 96.02704406238182 59.489148148575055 130.38191894936855 C 0.0 **** -0.24
5037 H 95.08672931630527 59.90130728719137 130.01625644173646 H 0.0 **** 0.06
5038 H 96.34734429585934 60.04121748639865 131.26614082218205 H 0.0 **** 0.06
5039 H 96.78705073670461 59.57393192126453 129.60496551121136 H 0.0 **** 0.06
5040 H 95.88634512890549 58.438994685416375 130.63986782921558 H 0.0 **** 0.06
5041 C 93.66167513871125 92.5127926867657 81.83962887518192 C 0.0 **** -0.24
5042 H 94.58017735536438 92.6551067397845 81.27116392333029 H 0.0 **** 0.06
5043 H 93.65120317808243 91.51077968176031 82.26724586082724 H 0.0 **** 0.06
5044 H 92.80337700710948 92.63591098199277 81.17998411335631 H 0.0 **** 0.06
5045 H 93.61263236431392 93.25091636453173 82.64050110519719 H 0.0 **** 0.06
5046 C 69.76020178974996 133.80249515066012 58.27904258100462 C 0.0 **** -0.24
5047 H 69.11712006606595 133.7127212072195 59.15427373692913 H 0.0 **** 0.06
5048 H 70.65358513122544 134.3707009064196 58.54130497551125 H 0.0 **** 0.06
5049 H 69.22144049349248 134.31884241953446 57.48377226063242 H 0.0 **** 0.06
5050 H 70.0495145488291 132.8092008607786 57.93707971082809 H 0.0 **** 0.06
5051 C 64.89897237908481 47.337190199889335 3.14622340463643 C 0.0 **** -0.24
5052 H 63.856227385511204 47.634672284985555 3.032700821108108 H 0.0 **** 0.06
5053 H 65.02119689939583 46.78758505966135 4.079409563023319 H 0.0 **** 0.06
5054 H 65.52974935490478 48.226908162370805 3.1619552533862247 H 0.0 **** 0.06
5055 H 65.18841907816046 46.70264155438413 2.3089219899448494 H 0.0 **** 0.06
5056 C 32.30112620922056 2.3917112201781947 37.04609787581185 C 0.0 **** -0.24
5057 H 31.991582874752858 3.4358714559005534 37.00663438795595 H 0.0 **** 0.06
5058 H 32.322865047452844 2.058281756187398 38.08390388104209 H 0.0 **** 0.06
5059 H 33.296121992289955 2.290737423454857 36.610891239722704 H 0.0 **** 0.06
5060 H 31.59513607150496 1.781210317774537 36.48302448868453 H 0.0 **** 0.06
5061 C 35.12227894451365 23.360835293806765 25.072436080565495 C 0.0 **** -0.24
5062 H 34.558764411407594 22.58662444937594 25.591837599182064 H 0.0 **** 0.06
5063 H 34.460100107663834 24.19393104639429 24.83233857328431 H 0.0 **** 0.06
5064 H 35.54051625620261 22.95170482515548 24.151846078949966 H 0.0 **** 0.06
5065 H 35.931344931744434 23.712924387652407 25.713821023331903 H 0.0 **** 0.06
5066 C 127.45286654242616 73.61618529259613 72.53185081252326 C 0.0 **** -0.24
5067 H 127.191862609288 74.40597284676525 71.82778788610256 H 0.0 **** 0.06
5068 H 127.30232026439447 73.97367914982055 73.55143117251336 H 0.0 **** 0.06
5069 H 128.49724080560142 73.33739126950005 72.39448882243829 H 0.0 **** 0.06
5070 H 126.81781584968729 72.74793160335986 72.35468921705157 H 0.0 **** 0.06
5071 C 124.87483736241265 32.7175912884876 125.46009181144797 C 0.0 **** -0.24
5072 H 125.23987553797718 31.94686741780572 124.78157734113512 H 0.0 **** 0.06
5073 H 125.72145213059386 33.2078705639986 125.94234257817548 H 0.0 **** 0.06
5074 H 124.23714387148732 32.26280705725833 126.21817583039208 H 0.0 **** 0.06
5075 H 124.30062934169945 33.45499292928582 124.89780531658845 H 0.0 **** 0.06
5076 C 20.54591113691913 4.394045954995704 43.960420278251945 C 0.0 **** -0.24
5077 H 20.649482812332934 4.274705063988847 45.03922644879219 H 0.0 **** 0.06
5078 H 20.463962937531846 5.454184133379613 43.71933808015336 H 0.0 **** 0.06
5079 H 19.64942477263017 3.8745990790356473 43.62257832913741 H 0.0 **** 0.06
5080 H 21.41966432638759 3.9743559361071448 43.46299021917895 H 0.0 **** 0.06
5081 C 11.175802685270241 9.67077061927823 10.202752193664061 C 0.0 **** -0.24
5082 H 12.160173452568017 9.369182889442925 10.561535027245341 H 0.0 **** 0.06
5083 H 10.822841429044104 8.950858314537356 9.46373884578021 H 0.0 **** 0.06
5084 H 11.242182779918778 10.658480578386772 9.746284459236406 H 0.0 **** 0.06
5085 H 10.479173213884394 9.703636794920826 11.040792337630812 H 0.0 **** 0.06
5086 C 113.16390663499917 90.88247684650707 134.618003098622 C 0.0 **** -0.24
5087 H 112.4856392776833 90.09109523297195 134.29914170075702 H 0.0 **** 0.06
5088 H 112.75448658304526 91.3790618495637 135.49797277947854 H 0.0 **** 0.06
5089 H 113.27917528872024 91.60734634410943 133.81225785128265 H 0.0 **** 0.06
5090 H 114.13556457120345 90.45262461966104 134.862029727559 H 0.0 **** 0.06
5091 C 94.17712325098302 15.75023021858226 12.809603234346241 C 0.0 **** -0.24
5092 H 94.16216678424564 15.265518221169557 11.83278815320952 H 0.0 **** 0.06
5093 H 94.91854659635942 15.26372250435697 13.444766842320462 H 0.0 **** 0.06
5094 H 93.19285794999905 15.666927547782734 13.271719667980022 H 0.0 **** 0.06
5095 H 94.43505506836829 16.801930676494884 12.689277264919838 H 0.0 **** 0.06
5096 C 116.73421894126633 116.71142101901987 7.0466180727419 C 0.0 **** -0.24
5097 H 117.2039519858723 116.79305253317227 8.027537687220118 H 0.0 **** 0.06
5098 H 117.46738179169631 116.93696749204983 6.272769867255718 H 0.0 **** 0.06
5099 H 115.90641157287112 117.41800912289284 6.981148176518381 H 0.0 **** 0.06
5100 H 116.35787332819925 115.69817820795848 6.907495729700656 H 0.0 **** 0.06
5101 C 130.02726863772006 30.665404726013847 105.3578317863541 C 0.0 **** -0.24
5102 H 131.01370321370848 30.207702660814988 105.2759980437593 H 0.0 **** 0.06
5103 H 129.8074792356947 31.2198335010945 104.44587653547364 H 0.0 **** 0.06
5104 H 130.01206688167673 31.343960912077073 106.21002566997248 H 0.0 **** 0.06
5105 H 129.2778991366535 29.88707543120939 105.50007417646256 H 0.0 **** 0.06
5106 C 108.94878679829051 72.59997023744683 77.56537045640152 C 0.0 **** -0.24
5107 H 108.93618162666893 72.35737137973751 76.50273224380908 H 0.0 **** 0.06
5108 H 109.81857847257166 73.21849642357932 77.78628639885459 H 0.0 **** 0.06
5109 H 108.99901055428896 71.67966821433845 78.14763400608479 H 0.0 **** 0.06
5110 H 108.04054451018145 73.14504174147027 77.82392238226572 H 0.0 **** 0.06
5111 C 40.415597811738394 105.65874479174454 91.29224710174692 C 0.0 **** -0.24
5112 H 41.05427268580297 105.8797930585639 92.14751731512794 H 0.0 **** 0.06
5113 H 40.862059915558234 106.07528165640838 90.38845411390612 H 0.0 **** 0.06
5114 H 39.43239664966018 106.10276639351628 91.44937562770255 H 0.0 **** 0.06
5115 H 40.31455008758212 104.57940882725472 91.1838762555882 H 0.0 **** 0.06
5116 C 115.4736002046923 103.31399492939391 117.8314252631726 C 0.0 **** -0.24
5117 H 115.28759843543494 102.76073528831233 118.75283518647836 H 0.0 **** 0.06
5118 H 115.06121017333996 104.3188588390052 117.92357219247742 H 0.0 **** 0.06
5119 H 114.9967636019745 102.79986785029553 116.99727585508776 H 0.0 **** 0.06
5120 H 116.54682436388404 103.37563565330402 117.65565179206556 H 0.0 **** 0.06
5121 C 80.9429667197573 128.07452908627934 38.50625210800578 C 0.0 **** -0.24
5122 H 81.47020743964771 128.47860286641472 37.64133666556873 H 0.0 **** 0.06
5123 H 79.88679556035947 128.33881511033917 38.442600703099224 H 0.0 **** 0.06
5124 H 81.36854151755944 128.49199275246647 39.418382694538096 H 0.0 **** 0.06
5125 H 81.04660603344627 126.98990610624494 38.51977652805976 H 0.0 **** 0.06
5126 C 13.721070748979841 92.45510011234435 133.6035072920729 C 0.0 **** -0.24
5127 H 13.976148531630898 91.45696803247527 133.9596136521851 H 0.0 **** 0.06
5128 H 14.21918235586405 93.20037588979501 134.2242463193346 H 0.0 **** 0.06
5129 H 12.642094422655333 92.59650067401311 133.66004928361002 H 0.0 **** 0.06
5130 H 14.048280674766872 92.5658014419083 132.56948264939038 H 0.0 **** 0.06
5131 C 47.679248313299894 119.8590084783851 133.6002070931698 C 0.0 **** -0.24
5132 H 47.16335301855804 119.4012175253128 134.44426902970898 H 0.0 **** 0.06
5133 H 48.75643099683424 119.7774711212254 133.7459678315133 H 0.0 **** 0.06
5134 H 47.39949175586639 120.91007731401459 133.53145670255174 H 0.0 **** 0.06
5135 H 47.39656459317183 119.34538870686075 132.6802023104552 H 0.0 **** 0.06
5136 C 107.93552030945533 56.589176671383996 94.01308020705108 C 0.0 **** -0.24
5137 H 108.06351540831636 56.594764354572874 92.93082049900315 H 0.0 **** 0.06
5138 H 106.87331061636917 56.53465536290457 94.25242112967908 H 0.0 **** 0.06
5139 H 108.35586359865168 57.50341522313738 94.4326233773058 H 0.0 **** 0.06
5140 H 108.44848076332335 55.724921557663606 94.43470411587664 H 0.0 **** 0.06
5141 C 40.090922356643574 106.88721967172023 64.3211788187316 C 0.0 **** -0.24
5142 H 40.71408785073038 106.44977515636293 65.10043876951465 H 0.0 **** 0.06
5143 H 39.6368269800588 106.09249217186493 63.73017069303833 H 0.0 **** 0.06
5144 H 40.70467576280936 107.5163026461675 63.67573132045466 H 0.0 **** 0.06
5145 H 39.30768965092332 107.49233720301044 64.77922185723082 H 0.0 **** 0.06
5146 C 107.69209805812966 102.93474453969796 29.729470678571296 C 0.0 **** -0.24
5147 H 108.21699320512448 102.1281093175266 29.21736348276081 H 0.0 **** 0.06
5148 H 106.85877757426994 102.52136750743743 30.298132695062172 H 0.0 **** 0.06
5149 H 107.31491689318847 103.64668528901241 28.995482402724477 H 0.0 **** 0.06
5150 H 108.37876322545196 103.44206146678938 30.408424010283156 H 0.0 **** 0.06
5151 C 33.830523729033985 100.9340973685259 10.447936907389249 C 0.0 **** -0.24
5152 H 33.35328730361823 100.7300042222413 11.406704589806282 H 0.0 **** 0.06
5153 H 34.67049657826169 101.61335980948975 10.597473748378832 H 0.0 **** 0.06
5154 H 33.10875034459701 101.3924600639426 9.772432023312945 H 0.0 **** 0.06
5155 H 34.19095227917103 100.0003348746343 10.015035095050791 H 0.0 **** 0.06
5156 C 95.07085173665972 52.349508882488834 66.19776603525253 C 0.0 **** -0.24
5157 H 95.26705964676542 51.3486397102744 65.81402863854089 H 0.0 **** 0.06
5158 H 95.92687132688602 52.689639024609875 66.7808012165707 H 0.0 **** 0.06
5159 H 94.18419776135397 52.3278612393316 66.83329517035378 H 0.0 **** 0.06
5160 H 94.90321468560512 53.0312495601075 65.36409012729683 H 0.0 **** 0.06
5161 C 130.47370134799957 117.33018839004365 132.18576831129138 C 0.0 **** -0.24
5162 H 130.8775035429949 117.8729298797407 133.04039836024256 H 0.0 **** 0.06
5163 H 129.3872993264924 117.42080787671625 132.17836302628277 H 0.0 **** 0.06
5164 H 130.75014109782168 116.27774999061955 132.26115144817703 H 0.0 **** 0.06
5165 H 130.88063265993807 117.74717699282098 131.26517099325392 H 0.0 **** 0.06
5166 C 4.670502894750243 14.416082042486323 106.5148850844256 C 0.0 **** -0.24
5167 H 4.5117173400628126 14.38052472402262 107.59279922722993 H 0.0 **** 0.06
5168 H 4.396884440498933 13.456330331546155 106.07523668932424 H 0.0 **** 0.06
5169 H 5.720426634476645 14.625172959322526 106.30871473605828 H 0.0 **** 0.06
5170 H 4.052414098748134 15.203497011083698 106.0832834391984 H 0.0 **** 0.06
5171 C 29.624630423437367 117.6965664968194 20.89824998605615 C 0.0 **** -0.24
5172 H 28.83957870721045 117.58901516135651 21.64722368979482 H 0.0 **** 0.06
5173 H 30.089687551451277 116.72709026801445 20.71997557966661 H 0.0 **** 0.06
5174 H 30.37578936695138 118.39949948246576 21.256822805348236 H 0.0 **** 0.06
5175 H 29.191624081583768 118.06860804248706 19.969604377199786 H 0.0 **** 0.06
5176 C 103.88260554858188 18.345041342722986 3.5689737169590785 C 0.0 **** -0.24
5177 H 103.71313781724278 17.77599691058291 2.6548319402036498 H 0.0 **** 0.06
5178 H 104.78859920073387 17.98517033840954 4.057270199717351 H 0.0 **** 0.06
5179 H 103.03270892366042 18.217679578103983 4.238898141473328 H 0.0 **** 0.06
5180 H 103.99647303468839 19.400987881708502 3.323612415266325 H 0.0 **** 0.06
5181 C 96.91668531558139 134.27978326518698 89.10102215822135 C 0.0 **** -0.24
5182 H 96.51728955599356 135.2927629075994 89.0601651319943 H 0.0 **** 0.06
5183 H 96.9614296141886 133.94837635420225 90.13832754071535 H 0.0 **** 0.06
5184 H 97.9190429066739 134.26636839077364 88.67135318320749 H 0.0 **** 0.06
5185 H 96.26951736527099 133.61078430623286 88.53324127673292 H 0.0 **** 0.06
5186 C 66.8181823202047 134.37737975054785 46.8768366708573 C 0.0 **** -0.24
5187 H 66.73543833599854 133.6377234242811 46.080124651943606 H 0.0 **** 0.06
5188 H 67.86638560709355 134.50508403906724 47.145958420921716 H 0.0 **** 0.06
5189 H 66.25762370515508 134.03825441295612 47.74792111138407 H 0.0 **** 0.06
5190 H 66.4123835748508 135.32898628311875 46.53195916119046 H 0.0 **** 0.06
5191 C 76.68520802315044 40.539379771459835 3.1967580876270745 C 0.0 **** -0.24
5192 H 76.14799333701438 40.390377247749484 2.259945029702976 H 0.0 **** 0.06
5193 H 77.33265162952102 39.682925334201514 3.383135673034417 H 0.0 **** 0.06
5194 H 75.97039591506251 40.63919304426145 4.013388976566432 H 0.0 **** 0.06
5195 H 77.28837615604459 41.44501272901175 3.127734603351655 H 0.0 **** 0.06
5196 C 35.84404752973688 127.42838213081507 58.84622070522367 C 0.0 **** -0.24
5197 H 35.26895715067795 128.12489163571172 59.456533443234775 H 0.0 **** 0.06
5198 H 36.28160403236029 126.66110619397817 59.48466411742076 H 0.0 **** 0.06
5199 H 36.63775088943032 127.96838428833465 58.32916969621371 H 0.0 **** 0.06
5200 H 35.18719122339465 126.96027193159041 58.1124511651892 H 0.0 **** 0.06
5201 C 73.14051963712791 129.3302126350917 17.965868954567043 C 0.0 **** -0.24
5202 H 72.64848398748023 129.31507732339443 16.993498196481767 H 0.0 **** 0.06
5203 H 73.4488208267332 130.34868601540094 18.20057596456843 H 0.0 **** 0.06
5204 H 74.01596898977084 128.68152760220266 17.939521062065523 H 0.0 **** 0.06
5205 H 72.4470737559559 128.9745864521229 18.72885254129443 H 0.0 **** 0.06
5206 C 112.96687980718517 48.17938337554813 3.5187365121716887 C 0.0 **** -0.24
5207 H 112.77130624436265 49.09450463266927 2.9605527706242007 H 0.0 **** 0.06
5208 H 112.94756951251972 48.39616792599253 4.5875118415729865 H 0.0 **** 0.06
5209 H 113.94732654432977 47.78889809725598 3.2451519217625275 H 0.0 **** 0.06
5210 H 112.20236752465394 47.43938399611909 3.284708966850989 H 0.0 **** 0.06
5211 C 5.461037885654264 87.5798933582193 69.4612334985587 C 0.0 **** -0.24
5212 H 5.9583741791939815 87.68368677368332 68.49701070904612 H 0.0 **** 0.06
5213 H 4.929900859294889 86.62805042028786 69.4941818417716 H 0.0 **** 0.06
5214 H 4.752727103708651 88.39706414154168 69.59355415809621 H 0.0 **** 0.06
5215 H 6.204564357530444 87.60974372376076 70.25774991763731 H 0.0 **** 0.06
5216 C 37.337082087635764 5.318213657457278 23.526701846091356 C 0.0 **** -0.24
5217 H 37.107664084171006 6.222760734226082 22.9640447605901 H 0.0 **** 0.06
5218 H 37.8986521166134 4.6296507746760085 22.896343803440224 H 0.0 **** 0.06
5219 H 36.40853273497526 4.844449260842051 23.845462674236288 H 0.0 **** 0.06
5220 H 37.931168767225614 5.5771751936545435 24.403651699421125 H 0.0 **** 0.06
5221 C 16.53999501841578 35.37719254350419 131.46030525973 C 0.0 **** -0.24
5222 H 16.229853387431866 34.81816587404829 130.57781028223016 H 0.0 **** 0.06
5223 H 16.50718933415738 34.724910016192815 132.33281906524996 H 0.0 **** 0.06
5224 H 15.865406908005689 36.22094911095186 131.61177104138565 H 0.0 **** 0.06
5225 H 17.55620043108678 35.74584986624424 131.31892484676814 H 0.0 **** 0.06
5226 C 104.80590696652524 6.902053557456696 9.990358519700095 C 0.0 **** -0.24
5227 H 103.81320077327177 6.460855606549529 9.902206185132428 H 0.0 **** 0.06
5228 H 105.0868829708404 7.355584921928141 9.038535550721122 H 0.0 **** 0.06
5229 H 105.52684674370823 6.126519550108071 10.249977329591644 H 0.0 **** 0.06
5230 H 104.79720011245695 7.665067745051658 10.767937805791206 H 0.0 **** 0.06
5231 C 77.10486263400969 1.2499168772997393 49.315079241639836 C 0.0 **** -0.24
5232 H 77.76993450320407 1.8665030597206282 49.92015938041425 H 0.0 **** 0.06
5233 H 76.60133995595652 1.8753517987664168 48.57716855249279 H 0.0 **** 0.06
5234 H 76.36152617407737 0.7783031220678254 49.958470625635925 H 0.0 **** 0.06
5235 H 77.68532900589429 0.48128699601858216 48.804828364186704 H 0.0 **** 0.06
5236 C 54.35285286034514 30.736462623006844 90.32290862026241 C 0.0 **** -0.24
5237 H 54.871487185225874 29.821434605621782 90.61321077140204 H 0.0 **** 0.06
5238 H 53.35475329733106 30.48859509360296 89.96056065116474 H 0.0 **** 0.06
5239 H 54.9127899821666 31.235663954142844 89.53286023117946 H 0.0 **** 0.06
5240 H 54.273666778522966 31.397639046543688 91.1860067463946 H 0.0 **** 0.06
5241 C 108.28185123590103 67.72579341653403 93.66409678115643 C 0.0 **** -0.24
5242 H 108.58288008161205 68.49274184095611 92.95084802744745 H 0.0 **** 0.06
5243 H 108.72458196543943 66.77095027137239 93.3785338532743 H 0.0 **** 0.06
5244 H 107.19496668012516 67.63732879080419 93.66438406999754 H 0.0 **** 0.06
5245 H 108.62351345473039 68.00196304677888 94.66066551185742 H 0.0 **** 0.06
5246 C 121.17941338779616 35.61139412711615 29.773551793648423 C 0.0 **** -0.24
5247 H 120.52959235185864 36.20103361512234 29.12598788799098 H 0.0 **** 0.06
5248 H 120.71190093207295 35.49877711959742 30.75162876665955 H 0.0 **** 0.06
5249 H 122.13725504248859 36.11804788053865 29.8841968191756 H 0.0 **** 0.06
5250 H 121.33673933391484 34.6276568261445 29.330318705643826 H 0.0 **** 0.06
5251 C 88.99498263302726 105.97875450067332 90.87461888985887 C 0.0 **** -0.24
5252 H 88.42879658331213 106.90907814207772 90.82611779741863 H 0.0 **** 0.06
5253 H 88.79631055954718 105.48197897302272 91.82405478809075 H 0.0 **** 0.06
5254 H 90.05937415711998 106.19832208504049 90.793786957533 H 0.0 **** 0.06
5255 H 88.694280274925 105.32842496527081 90.05358258196821 H 0.0 **** 0.06
5256 C 27.642903478307034 80.47007557767348 2.8535291569985475 C 0.0 **** -0.24
5257 H 27.73364503392071 79.39318294807636 2.7110219549676344 H 0.0 **** 0.06
5258 H 26.654689422568453 80.70150473987798 3.2507363767097104 H 0.0 **** 0.06
5259 H 27.778071116107597 80.97547501560496 1.897091392787587 H 0.0 **** 0.06
5260 H 28.4058019494948 80.80934285026193 3.555153530915078 H 0.0 **** 0.06
5261 C 44.48119968403961 36.649231014989766 13.62532298918309 C 0.0 **** -0.24
5262 H 43.88781481511779 36.12010632165146 12.879630344964674 H 0.0 **** 0.06
5263 H 43.81990630516543 37.22182768559492 14.276267855448005 H 0.0 **** 0.06
5264 H 45.17401102347196 37.32603184449056 13.125440864123114 H 0.0 **** 0.06
5265 H 45.04306659240336 35.928958208222014 14.219952892196488 H 0.0 **** 0.06
5266 C 98.40686531689055 124.61512252957047 43.49553465310411 C 0.0 **** -0.24
5267 H 99.10298105860083 125.04126717274929 44.21796712626437 H 0.0 **** 0.06
5268 H 98.60502122623087 125.03583196310481 42.51001304362289 H 0.0 **** 0.06
5269 H 97.38550508381824 124.85176426520809 43.79384494123378 H 0.0 **** 0.06
5270 H 98.53478879379891 123.53303970741243 43.46301662406527 H 0.0 **** 0.06
5271 C 91.014848060335 30.548026758527826 86.38842163112584 C 0.0 **** -0.24
5272 H 90.57313300097755 29.573064586369554 86.18067018229634 H 0.0 **** 0.06
5273 H 90.26340441885242 31.198692379604182 86.83699583719961 H 0.0 **** 0.06
5274 H 91.37226868900461 30.990645901491234 85.45916396630406 H 0.0 **** 0.06
5275 H 91.84972479565988 30.427447078524153 87.07889715515738 H 0.0 **** 0.06
5276 C 62.80910641411995 7.323904016123823 42.56827707536445 C 0.0 **** -0.24
5277 H 63.46968388549561 7.453784875911126 41.71162056217321 H 0.0 **** 0.06
5278 H 63.13904906379456 7.969608930709157 43.38294518996639 H 0.0 **** 0.06
5279 H 62.83781301172776 6.284346682271849 42.8949689006343 H 0.0 **** 0.06
5280 H 61.7911359940376 7.5881310376048035 42.28510878334919 H 0.0 **** 0.06
5281 C 78.95536334862351 84.65372158783106 68.11733670960632 C 0.0 **** -0.24
5282 H 78.10527991946765 85.19083481842014 68.53736477715421 H 0.0 **** 0.06
5283 H 78.60107076248626 83.9305772053272 67.3815187225232 H 0.0 **** 0.06
5284 H 79.48598401735984 84.13155579832097 68.91379680114869 H 0.0 **** 0.06
5285 H 79.6295867896164 85.36189493711764 67.63533221241283 H 0.0 **** 0.06
5286 C 106.87534663887993 12.32141019632958 106.58494325215867 C 0.0 **** -0.24
5287 H 106.32367846018937 11.495360866166191 106.13648726439351 H 0.0 **** 0.06
5288 H 106.21329446818214 12.887034330945486 107.24033649953594 H 0.0 **** 0.06
5289 H 107.25262774639037 12.974262375330088 105.79757543544343 H 0.0 **** 0.06
5290 H 107.71105647295968 11.92811071265491 107.16259763838366 H 0.0 **** 0.06
5291 C 61.42163527712509 110.91286545939192 38.954239117719084 C 0.0 **** -0.24
5292 H 60.97335326795829 111.90542264486149 38.94811981696736 H 0.0 **** 0.06
5293 H 61.86430303322021 110.71993562156004 39.931713629831364 H 0.0 **** 0.06
5294 H 62.19501964549204 110.85891771842756 38.18778146078665 H 0.0 **** 0.06
5295 H 60.65411923298376 110.16614730097214 38.7484158469133 H 0.0 **** 0.06
5296 C 77.74731818732732 20.732909844134888 49.34545841592865 C 0.0 **** -0.24
5297 H 77.38804717219995 20.3842092685275 48.37724753600668 H 0.0 **** 0.06
5298 H 77.64946729660227 19.9319065212271 50.0784863558207 H 0.0 **** 0.06
5299 H 77.15556909287554 21.591006602825175 49.66395490904108 H 0.0 **** 0.06
5300 H 78.79396265889685 21.024400371295016 49.26197397395606 H 0.0 **** 0.06
5301 C 85.1283243125464 60.04526541078815 42.122806420564245 C 0.0 **** -0.24
5302 H 85.50070795778004 59.75989702556626 43.10714193750036 H 0.0 **** 0.06
5303 H 84.11996218093287 59.652584483425926 41.98833855193651 H 0.0 **** 0.06
5304 H 85.78385948723309 59.63476306610454 41.35372281200915 H 0.0 **** 0.06
5305 H 85.11046033506534 61.132046677318385 42.04199545912161 H 0.0 **** 0.06
5306 C 71.53202160929663 64.61981538481201 51.44853297056119 C 0.0 **** -0.24
5307 H 72.44420235174587 64.03440006797868 51.3360552799426 H 0.0 **** 0.06
5308 H 70.74757990299217 63.992296336786396 51.87113218714387 H 0.0 **** 0.06
5309 H 71.2154937398601 64.98834705741831 50.471571003403454 H 0.0 **** 0.06
5310 H 71.7209637645673 65.46353563628695 52.11073533170185 H 0.0 **** 0.06
5311 C 49.05995029876959 7.093093743333355 71.41548345270363 C 0.0 **** -0.24
5312 H 48.96688147896805 7.8081019218557515 72.23332487492051 H 0.0 **** 0.06
5313 H 48.813395281348676 7.585063755602221 70.47415979429624 H 0.0 **** 0.06
5314 H 48.37651922288251 6.2601536557480415 71.58120565233301 H 0.0 **** 0.06
5315 H 50.083517792785585 6.720220695379027 71.3744182429053 H 0.0 **** 0.06
5316 C 4.204660745358751 110.47862438298105 126.74762093422231 C 0.0 **** -0.24
5317 H 4.66125695394544 111.21154871130841 127.41331375051448 H 0.0 **** 0.06
5318 H 4.555283284123448 109.48038184815891 127.0122504893128 H 0.0 **** 0.06
5319 H 4.483174428965015 110.70054475281981 125.71725907734702 H 0.0 **** 0.06
5320 H 3.120300118784428 110.52122617294077 126.8488788809479 H 0.0 **** 0.06
5321 C 11.36315785879506 4.30542099868768 124.64800534954452 C 0.0 **** -0.24
5322 H 11.790857341776956 3.7472381377090187 125.48175961737502 H 0.0 **** 0.06
5323 H 11.898236660680208 4.055334149199098 123.73096479168711 H 0.0 **** 0.06
5324 H 11.453782719806664 5.374074885580512 124.84160041249385 H 0.0 **** 0.06
5325 H 10.311654426616592 4.04363227932771 124.53704956419483 H 0.0 **** 0.06
5326 C 81.71988607300946 42.91096740810109 17.21467146477451 C 0.0 **** -0.24
5327 H 81.3312846841433 43.772374080876446 16.670704917118904 H 0.0 **** 0.06
5328 H 82.58169850419787 42.505799863559936 16.68494735948888 H 0.0 **** 0.06
5329 H 80.94526052898365 42.14735893348843 17.285983677708614 H 0.0 **** 0.06
5330 H 82.01927199661263 43.21892187438591 18.216313197704203 H 0.0 **** 0.06
5331 C 56.35737922992497 106.86187445510008 114.73343935003649 C 0.0 **** -0.24
5332 H 56.921447237732224 107.57301030945395 114.12972571521502 H 0.0 **** 0.06
5333 H 56.77719465757329 105.86316705477573 114.6045258208056 H 0.0 **** 0.06
5334 H 55.31471100090869 106.8619932556768 114.41534656019812 H 0.0 **** 0.06
5335 H 56.41756406478616 107.1476822615693 115.783581124003 H 0.0 **** 0.06
5336 C 63.13305903845932 74.11222547528797 8.902136604998589 C 0.0 **** -0.24
5337 H 63.85039836469663 74.43319166170943 8.146003602779444 H 0.0 **** 0.06
5338 H 63.58710287415542 74.19222953775426 9.890346933866795 H 0.0 **** 0.06
5339 H 62.84759331122258 73.07712335393015 8.71573392561288 H 0.0 **** 0.06
5340 H 62.24838048034185 74.74750135790308 8.85606627522452 H 0.0 **** 0.06
5341 C 55.31386810909791 96.54852634778129 32.756666090958504 C 0.0 **** -0.24
5342 H 55.246914530344355 95.49019630609483 32.50278453461226 H 0.0 **** 0.06
5343 H 54.61138875793067 97.11383366775227 32.143459354238814 H 0.0 **** 0.06
5344 H 56.32699661416227 96.90343141261256 32.57032757375816 H 0.0 **** 0.06
5345 H 55.06862092550287 96.68504092238808 33.810244130050535 H 0.0 **** 0.06
5346 C 114.92350917064417 102.34788591869881 22.52878315040789 C 0.0 **** -0.24
5347 H 115.09271976371645 102.52047499250057 21.465790271227945 H 0.0 **** 0.06
5348 H 114.80884293468338 103.30436508496445 23.038639320128084 H 0.0 **** 0.06
5349 H 115.77311176603473 101.81108326100002 22.94938788439424 H 0.0 **** 0.06
5350 H 114.018129073562 101.75459297174257 22.659758171102908 H 0.0 **** 0.06
5351 C 130.57275139541372 91.39286989462265 134.92229911095896 C 0.0 **** -0.24
5352 H 129.50392734220753 91.48150638418159 134.7315041679861 H 0.0 **** 0.06
5353 H 130.94204519325706 90.45981050684436 134.49353057485354 H 0.0 **** 0.06
5354 H 130.75218589293098 91.3954464739772 135.99726918891704 H 0.0 **** 0.06
5355 H 131.09418349726133 92.23460515058962 134.4648426028567 H 0.0 **** 0.06
5356 C 97.18016981874743 53.287583371111225 47.590037645081736 C 0.0 **** -0.24
5357 H 96.56978608658734 52.389080182412854 47.50006111914344 H 0.0 **** 0.06
5358 H 96.5463265460195 54.132127580539645 47.85826663828789 H 0.0 **** 0.06
5359 H 97.67182208154627 53.48920983671566 46.638409105861 H 0.0 **** 0.06
5360 H 97.93377032744446 53.137841865911014 48.36421778586832 H 0.0 **** 0.06
5361 C 113.27336191613509 111.85697338806673 115.62128182936198 C 0.0 **** -0.24
5362 H 114.07575756312008 111.26583899877363 116.06460620351447 H 0.0 **** 0.06
5363 H 112.74848183790888 112.40241246879486 116.40586974459342 H 0.0 **** 0.06
5364 H 112.576277797399 111.1952048268547 115.10842209375141 H 0.0 **** 0.06
5365 H 113.69656163673739 112.56387093825288 114.9069325044731 H 0.0 **** 0.06
5366 C 118.70429367275997 5.628234872727742 133.75909658585934 C 0.0 **** -0.24
5367 H 119.11819373711063 5.000813999017083 134.54890534540868 H 0.0 **** 0.06
5368 H 117.75779069619531 6.053805523496898 134.09303343088365 H 0.0 **** 0.06
5369 H 118.53768429012685 5.025298877261498 132.86685361013488 H 0.0 **** 0.06
5370 H 119.40499414071031 6.431315276754184 133.52956270159248 H 0.0 **** 0.06
5371 C 119.57951267941357 41.153886213148894 89.34824107355854 C 0.0 **** -0.24
5372 H 118.90185316128989 40.42281341432425 89.78987806407332 H 0.0 **** 0.06
5373 H 120.1335783150983 41.658942240415556 90.139980159662 H 0.0 **** 0.06
5374 H 119.00527458578637 41.886024295138796 88.78128211420739 H 0.0 **** 0.06
5375 H 120.2775957145958 40.64565016368172 88.68250592393414 H 0.0 **** 0.06
5376 C 56.78867254954389 38.21415839774545 40.30095832071824 C 0.0 **** -0.24
5377 H 57.603370053194794 37.80702270956803 40.900870506206864 H 0.0 **** 0.06
5378 H 57.19794303391865 38.855431985257724 39.52098148011449 H 0.0 **** 0.06
5379 H 56.12354572578553 38.79586120784148 40.93984817841624 H 0.0 **** 0.06
5380 H 56.231069534854214 37.39663853463972 39.84471147776366 H 0.0 **** 0.06
5381 C 1.7701487173066646 80.73561556903974 17.45803877772107 C 0.0 **** -0.24
5382 H 0.7946608734020195 80.28838187457342 17.65263223533009 H 0.0 **** 0.06
5383 H 1.6462397190305467 81.61859595678408 16.83162260253664 H 0.0 **** 0.06
5384 H 2.4053456501142882 80.01202874571709 16.946552654871084 H 0.0 **** 0.06
5385 H 2.2332673502960603 81.021072079502 18.402813775091374 H 0.0 **** 0.06
5386 C 27.62996098073497 78.99009391515371 94.10443915877194 C 0.0 **** -0.24
5387 H 28.5559311284807 79.4453012149101 93.75496727206558 H 0.0 **** 0.06
5388 H 26.912422137481684 78.94967078883322 93.28407819837179 H 0.0 **** 0.06
5389 H 27.217167747040385 79.58397370542734 94.91900992545044 H 0.0 **** 0.06
5390 H 27.83369059447172 77.97967751334265 94.45846456236869 H 0.0 **** 0.06
5391 C 51.43173341531623 29.70723434782927 127.45720936482275 C 0.0 **** -0.24
5392 H 52.35679928647792 29.76063062236372 128.03169527263313 H 0.0 **** 0.06
5393 H 51.12464070549679 28.665305169275854 127.3606548762668 H 0.0 **** 0.06
5394 H 51.59547506427286 30.13179491532682 126.46650957201382 H 0.0 **** 0.06
5395 H 50.65312381671714 30.270816281537364 127.96952418638708 H 0.0 **** 0.06
5396 C 6.277726179748981 27.533586105817307 34.93576469616755 C 0.0 **** -0.24
5397 H 6.568567192514962 27.84073456659351 33.93104961063443 H 0.0 **** 0.06
5398 H 7.10731890833074 27.008241307561548 35.40881628344283 H 0.0 **** 0.06
5399 H 5.414192773788841 26.870145180222437 34.87618016170245 H 0.0 **** 0.06
5400 H 6.020456426751451 28.413561637545342 35.52416620656069 H 0.0 **** 0.06
5401 C 52.73277179217996 133.7880738894288 99.37749838418961 C 0.0 **** -0.24
5402 H 53.273388291357094 133.7211391757632 98.43361407641873 H 0.0 **** 0.06
5403 H 52.73142699674378 132.8125457624114 99.86475619268816 H 0.0 **** 0.06
5404 H 51.706900780029684 134.1009378340733 99.18668482162954 H 0.0 **** 0.06
5405 H 53.22157594396529 134.51682202572232 100.02429412341428 H 0.0 **** 0.06
5406 C 70.94277654827832 83.78559798461069 112.74434802103983 C 0.0 **** -0.24
5407 H 70.92029295965814 82.83162031103932 112.21788802106147 H 0.0 **** 0.06
5408 H 70.40473701501975 83.69146212719039 113.68798831024506 H 0.0 **** 0.06
5409 H 70.46867826470067 84.55010781612128 112.12935812927745 H 0.0 **** 0.06
5410 H 71.97699748708588 84.06755539849101 112.942517497475 H 0.0 **** 0.06
5411 C 29.04851994778079 52.830622336426416 26.0586788275902 C 0.0 **** -0.24
5412 H 30.076306282916505 53.18717700220259 26.13049182128276 H 0.0 **** 0.06
5413 H 28.71607859895272 52.889054950475554 25.022403079059245 H 0.0 **** 0.06
5414 H 28.40466571687864 53.45164636000112 26.682649997477824 H 0.0 **** 0.06
5415 H 28.99783306129791 51.79672275247253 26.40011630567176 H 0.0 **** 0.06
5416 C 11.787039134982724 105.77513327466086 114.78427184161211 C 0.0 **** -0.24
5417 H 12.749833200943929 106.28107435498609 114.85313585669078 H 0.0 **** 0.06
5418 H 11.433802134029609 105.80553279673227 113.75328029112919 H 0.0 **** 0.06
5419 H 11.066338183647812 106.27625246265623 115.4307266160449 H 0.0 **** 0.06
5420 H 11.8989674334921 104.73794100530999 115.09938498095562 H 0.0 **** 0.06
5421 C 90.19941137029814 129.56186411567003 69.20251952401722 C 0.0 **** -0.24
5422 H 89.23306633503648 129.07823283300144 69.0601393565954 H 0.0 **** 0.06
5423 H 90.07118810227213 130.45561606148468 69.81294749136393 H 0.0 **** 0.06
5424 H 90.61381839665091 129.83886381402036 68.2331392848219 H 0.0 **** 0.06
5425 H 90.87918249066506 128.87255755460652 69.70411376672234 H 0.0 **** 0.06
5426 C 37.30392080077746 84.90683107029685 86.51755685912565 C 0.0 **** -0.24
5427 H 36.69810066076295 84.60879937073274 87.37338635985634 H 0.0 **** 0.06
5428 H 37.01365276537358 84.31855171258994 85.64632211125996 H 0.0 **** 0.06
5429 H 38.35625771763695 84.73328787735689 86.73906028018251 H 0.0 **** 0.06
5430 H 37.14566922211938 85.96477819694694 86.3108654790181 H 0.0 **** 0.06
5431 C 62.738302802805805 128.87583613085772 120.67001233139132 C 0.0 **** -0.24
5432 H 62.33285416370606 129.87035087975988 120.48351599634594 H 0.0 **** 0.06
5433 H 63.7487865546662 128.96587832485147 121.0696572855557 H 0.0 **** 0.06
5434 H 62.765887911284906 128.3137320440432 119.73602187982999 H 0.0 **** 0.06
5435 H 62.106573777231176 128.3548645260219 121.38840220907184 H 0.0 **** 0.06
5436 C 31.2572522748531 98.539394728182 15.146244703578077 C 0.0 **** -0.24
5437 H 31.128493627648353 99.44436532737737 15.740832403377624 H 0.0 **** 0.06
5438 H 32.08593461684008 97.95592812173312 15.547746096615185 H 0.0 **** 0.06
5439 H 31.472100157399126 98.81280618256083 14.113579419397297 H 0.0 **** 0.06
5440 H 30.343960561173972 97.94681560815873 15.183983648710125 H 0.0 **** 0.06
5441 C 119.26297638522509 51.59925382310425 121.5634412057774 C 0.0 **** -0.24
5442 H 120.22395483565833 51.34623528532154 122.01145248272337 H 0.0 **** 0.06
5443 H 119.42826090018396 52.186287028825035 120.65928791821386 H 0.0 **** 0.06
5444 H 118.67317480086565 52.180807332696816 122.27191679748287 H 0.0 **** 0.06
5445 H 118.72844837611916 50.68411854482176 121.30966715625422 H 0.0 **** 0.06
5446 C 80.46609079353755 134.76296365489202 24.988521579918654 C 0.0 **** -0.24
5447 H 79.94225416322968 135.71861316307408 25.018275321394597 H 0.0 **** 0.06
5448 H 79.74903404939431 133.9625554573982 24.8033285668875 H 0.0 **** 0.06
5449 H 80.96407783406929 134.59184950002864 25.942810271928693 H 0.0 **** 0.06
5450 H 81.20664945997478 134.78070425286379 24.189652917120753 H 0.0 **** 0.06
5451 C 9.048624395774993 60.521856777997584 39.38464620251625 C 0.0 **** -0.24
5452 H 8.709621261405573 61.50884762060707 39.06811015810706 H 0.0 **** 0.06
5453 H 9.902085754111539 60.628040898643235 40.054443719200606 H 0.0 **** 0.06
5454 H 9.342043101356978 59.941478737418834 38.50973999691888 H 0.0 **** 0.06
5455 H 8.238958089991684 60.01072787761308 39.90616400118404 H 0.0 **** 0.06
5456 C 8.097118996769268 98.09339702963939 131.92558136762528 C 0.0 **** -0.24
5457 H 9.163997625539366 98.24630490315474 132.08323021667482 H 0.0 **** 0.06
5458 H 7.917516687374302 97.83363350738432 130.881516683937 H 0.0 **** 0.06
5459 H 7.5589400947030185 99.00928988308476 132.16915435324844 H 0.0 **** 0.06
5460 H 7.7463149630904695 97.28438215850576 132.56697950438263 H 0.0 **** 0.06
5461 C 87.28336315005015 37.51681905012745 79.94960400718912 C 0.0 **** -0.24
5462 H 87.39457689165829 38.54793630798605 79.61214315230853 H 0.0 **** 0.06
5463 H 87.59402562832815 36.83950437088572 79.15321353971547 H 0.0 **** 0.06
5464 H 86.2413840344106 37.32778795547091 80.2026785200542 H 0.0 **** 0.06
5465 H 87.90744254350398 37.35353405931096 80.82838611775523 H 0.0 **** 0.06
5466 C 112.65539668362297 66.27390448781863 32.73514201926529 C 0.0 **** -0.24
5467 H 113.67094109496713 65.87948653092862 32.73496936993696 H 0.0 **** 0.06
5468 H 112.63285755919483 67.22123217217423 32.19555759223027 H 0.0 **** 0.06
5469 H 112.32770683236672 66.43251369745441 33.76273121695741 H 0.0 **** 0.06
5470 H 111.98920926140713 65.56135505485697 32.24688822220684 H 0.0 **** 0.06
5471 C 14.362071218568076 119.17432386430082 6.979290578126381 C 0.0 **** -0.24
5472 H 14.855213663701704 119.28598569997459 6.014436622583389 H 0.0 **** 0.06
5473 H 14.72825587888292 119.93955291207912 7.664384296798573 H 0.0 **** 0.06
5474 H 14.581645545861477 118.18741774806443 7.386889038705135 H 0.0 **** 0.06
5475 H 13.285153212955265 119.2838704504214 6.852372473355842 H 0.0 **** 0.06
5476 C 16.15281071523185 75.53297398956497 111.68997316593604 C 0.0 **** -0.24
5477 H 15.780374529350915 76.50478341439415 111.36630237480074 H 0.0 **** 0.06
5478 H 16.108697413030185 75.47096797050943 112.77762677047693 H 0.0 **** 0.06
5479 H 17.185536439084117 75.41261140284377 111.3607262227402 H 0.0 **** 0.06
5480 H 15.538753176139394 74.74472413192305 111.25493231476275 H 0.0 **** 0.06
5481 C 124.78762311282685 20.089882811169133 61.5643647408707 C 0.0 **** -0.24
5482 H 123.98613226611121 19.42255390463049 61.881218990366165 H 0.0 **** 0.06
5483 H 125.53448691024607 20.160906660584516 62.354827341654584 H 0.0 **** 0.06
5484 H 124.37808678045587 21.07959600473336 61.360120061820965 H 0.0 **** 0.06
5485 H 125.25275918092211 19.695319283589185 60.65998141068218 H 0.0 **** 0.06
5486 C 73.82625938593962 24.069719227882437 127.74932280660384 C 0.0 **** -0.24
5487 H 74.16751021806328 23.115152322349587 127.34807727133548 H 0.0 **** 0.06
5488 H 74.10106524121811 24.870808409157164 127.0633658740362 H 0.0 **** 0.06
5489 H 74.29348870839027 24.24246886825084 128.7186309956646 H 0.0 **** 0.06
5490 H 72.74283682046736 24.047133843062483 127.86726988200806 H 0.0 **** 0.06
5491 C 6.942087375117978 86.66335671443272 59.53945909976984 C 0.0 **** -0.24
5492 H 6.685302953630412 86.05625327457727 58.67112203647359 H 0.0 **** 0.06
5493 H 7.371130157541188 86.02527853963915 60.31294126513707 H 0.0 **** 0.06
5494 H 6.043960533313339 87.14531350204712 59.9233937428335 H 0.0 **** 0.06
5495 H 7.668192440386804 87.42284901919172 59.2502655383972 H 0.0 **** 0.06
5496 C 91.0386216409133 104.75635933201133 74.0387135569658 C 0.0 **** -0.24
5497 H 90.7720244500421 103.70854572997158 74.18188380222615 H 0.0 **** 0.06
5498 H 92.03116508403679 104.82078363166029 73.5927661522882 H 0.0 **** 0.06
5499 H 91.03911809065053 105.26573271291886 75.00265940592617 H 0.0 **** 0.06
5500 H 90.31156942531777 105.2285327819022 73.37865573344895 H 0.0 **** 0.06
5501 C 97.86352402024576 11.238468817745911 66.89900317634263 C 0.0 **** -0.24
5502 H 97.23586082756503 11.088433035206549 66.02028008763457 H 0.0 **** 0.06
5503 H 97.76720947302653 12.269019400026991 67.24201790986656 H 0.0 **** 0.06
5504 H 98.90330269129592 11.037024430275949 66.64018941372906 H 0.0 **** 0.06
5505 H 97.54742861706433 10.559623325413497 67.69054819582796 H 0.0 **** 0.06
5506 C 82.67558173198587 53.041091911565275 94.20026041188189 C 0.0 **** -0.24
5507 H 82.19536080794461 52.866686050528614 95.16370297624754 H 0.0 **** 0.06
5508 H 82.69830327428481 52.11233747390243 93.6317228968319 H 0.0 **** 0.06
5509 H 83.69390465702305 53.39423055541049 94.36217264496038 H 0.0 **** 0.06
5510 H 82.11361136437698 53.793705562337735 93.64588587384725 H 0.0 **** 0.06
5511 C 29.03471053946224 89.53669787507766 45.9989536279536 C 0.0 **** -0.24
5512 H 29.004254983124206 89.58718380671027 47.08800126532532 H 0.0 **** 0.06
5513 H 29.01065862497932 88.49431845911963 45.682470321875556 H 0.0 **** 0.06
5514 H 29.951374592171945 90.00545552494333 45.64017184030965 H 0.0 **** 0.06
5515 H 28.172520472733567 90.0622331116544 45.58697168569336 H 0.0 **** 0.06
5516 C 111.14254700168493 4.806203546782516 84.78933318722736 C 0.0 **** -0.24
5517 H 110.60057782156579 3.8895722889780693 84.5561752658462 H 0.0 **** 0.06
5518 H 110.79103178963499 5.609908836325218 84.14154620613485 H 0.0 **** 0.06
5519 H 112.20860083491871 4.648845756447731 84.62738324883497 H 0.0 **** 0.06
5520 H 110.96793251132269 5.07585374792297 85.83012641075445 H 0.0 **** 0.06
5521 C 83.23229875705073 84.63882042346282 60.90972214963696 C 0.0 **** -0.24
5522 H 83.02867860456513 83.58394827720628 60.72174417861851 H 0.0 **** 0.06
5523 H 84.00701588698394 84.7275143263193 61.67158554943512 H 0.0 **** 0.06
5524 H 82.32185317426362 85.12727596681174 61.25714709047216 H 0.0 **** 0.06
5525 H 83.57160904163186 85.1124474113968 59.988885553873956 H 0.0 **** 0.06
5526 C 114.01651548791276 122.08163369471447 44.74228560341078 C 0.0 **** -0.24
5527 H 113.25418711151607 122.76352069375372 45.11803763857324 H 0.0 **** 0.06
5528 H 113.90402478576692 121.96945241710426 43.66394879968948 H 0.0 **** 0.06
5529 H 113.90278110963081 121.10970722859304 45.222992918892146 H 0.0 **** 0.06
5530 H 115.00530174079483 122.48274859360208 44.96501335275724 H 0.0 **** 0.06
5531 C 15.30879411861391 54.16453646334247 64.14566096403507 C 0.0 **** -0.24
5532 H 15.637828585644137 53.81437405738073 63.16794136668261 H 0.0 **** 0.06
5533 H 15.085298494495056 53.30897972593324 64.78242575909661 H 0.0 **** 0.06
5534 H 14.413334983288877 54.77520439368159 64.03048425536844 H 0.0 **** 0.06
5535 H 16.099000566077066 54.76191162197068 64.60251196803131 H 0.0 **** 0.06
5536 C 33.28001543694046 62.70301490960756 35.61766147780028 C 0.0 **** -0.24
5537 H 33.82078452349697 63.584476541686826 35.27241045130748 H 0.0 **** 0.06
5538 H 33.97868129948665 62.01149795709341 36.08994257832612 H 0.0 **** 0.06
5539 H 32.80142651091944 62.21463375555061 34.769661192645486 H 0.0 **** 0.06
5540 H 32.520978840712075 63.00332164771197 36.3406880445074 H 0.0 **** 0.06
5541 C 17.434681736410027 76.20043283690632 79.50053861279987 C 0.0 **** -0.24
5542 H 18.09940999247243 76.79458401275406 78.87254112766843 H 0.0 **** 0.06
5543 H 17.983939789609792 75.35190124802449 79.90903808258577 H 0.0 **** 0.06
5544 H 16.598645343371004 75.83856058224455 78.90207835443368 H 0.0 **** 0.06
5545 H 17.05804858994543 76.81706807828203 80.31547690892994 H 0.0 **** 0.06
5546 C 30.699323624558843 4.341742173727511 33.65108412082747 C 0.0 **** -0.24
5547 H 30.631605414400013 4.662150297111623 32.61099519029523 H 0.0 **** 0.06
5548 H 29.861212097142754 3.6843511939828204 33.882979014191974 H 0.0 **** 0.06
5549 H 30.66815575224635 5.21497970836262 34.30241339018803 H 0.0 **** 0.06
5550 H 31.63582536460862 3.8060801165304383 33.8056244120399 H 0.0 **** 0.06
5551 C 79.972534023847 116.87664172043355 61.898568529057144 C 0.0 **** -0.24
5552 H 79.7384784969688 117.46774752249675 61.013393978290765 H 0.0 **** 0.06
5553 H 80.78605168415925 117.35145485927112 62.44750075052333 H 0.0 **** 0.06
5554 H 80.2739704130998 115.87364045661971 61.595081016059595 H 0.0 **** 0.06
5555 H 79.09178517771517 116.81426632678884 62.53700082818003 H 0.0 **** 0.06
5556 C 125.33179874813581 74.25672278342547 86.25488058186221 C 0.0 **** -0.24
5557 H 126.3188493381713 74.25715783364197 86.71780069018007 H 0.0 **** 0.06
5558 H 125.26547659084297 75.07973547176807 85.54178335992083 H 0.0 **** 0.06
5559 H 124.56951824015951 74.3803613536991 87.02432064226778 H 0.0 **** 0.06
5560 H 125.17390627303307 73.3120219067491 85.73565593883336 H 0.0 **** 0.06
5561 C 55.25570283475014 17.429106537144207 61.21752532458535 C 0.0 **** -0.24
5562 H 55.752762035253625 16.673751056434355 60.60873117373461 H 0.0 **** 0.06
5563 H 54.56429537596526 16.94332092286291 61.906997720746375 H 0.0 **** 0.06
5564 H 54.70483998606565 18.111602591807866 60.570051513274734 H 0.0 **** 0.06
5565 H 56.00199025842622 17.988029805165468 61.7834466913049 H 0.0 **** 0.06
5566 C 136.40095659235212 74.13151953683999 109.13179482318321 C 0.0 **** -0.24
5567 H 135.8854026704835 74.08943141383445 110.09159159159972 H 0.0 **** 0.06
5568 H 135.71193373072146 74.48588797348143 108.3654929613705 H 0.0 **** 0.06
5569 H 136.7569505306324 73.1352045402226 108.86855760785721 H 0.0 **** 0.06
5570 H 137.24784655221907 74.81397043438352 109.20344138503694 H 0.0 **** 0.06
5571 C 55.17305435105726 11.499611280512568 44.3829049290253 C 0.0 **** -0.24
5572 H 54.7947555923017 11.164924554602976 45.348084104770464 H 0.0 **** 0.06
5573 H 55.77094875819677 12.40048688621306 44.51948627688125 H 0.0 **** 0.06
5574 H 54.335413711584664 11.716142402587195 43.719283401295655 H 0.0 **** 0.06
5575 H 55.790540700006545 10.716123224908586 43.94371802804935 H 0.0 **** 0.06
5576 C 118.5196295196769 64.493096546325 114.06082451136444 C 0.0 **** -0.24
5577 H 117.7491669387982 63.74855051727276 113.86446868522322 H 0.0 **** 0.06
5578 H 119.36109723823809 64.02097180917642 114.56714292614916 H 0.0 **** 0.06
5579 H 118.11015807291122 65.28084518650438 114.69270602525705 H 0.0 **** 0.06
5580 H 118.85722849938657 64.92333124049324 113.11739134106696 H 0.0 **** 0.06
5581 C 16.940398123257353 41.528607218014834 131.44396030689677 C 0.0 **** -0.24
5582 H 16.979819611394646 41.188813194523526 132.47857666055344 H 0.0 **** 0.06
5583 H 16.737634596645137 40.67950517939659 130.79072698371345 H 0.0 **** 0.06
5584 H 17.89627980467202 41.97711776155855 131.17200884249408 H 0.0 **** 0.06
5585 H 16.14785848031778 42.268992736580465 131.33452874082607 H 0.0 **** 0.06
5586 C 21.03126158777654 56.501071534180255 123.76333183955006 C 0.0 **** -0.24
5587 H 20.973857773739468 56.226316761509395 124.81726530352154 H 0.0 **** 0.06
5588 H 21.812348050544202 57.248380060207296 123.62515099444528 H 0.0 **** 0.06
5589 H 20.073669401860784 56.911117181974305 123.44338683578644 H 0.0 **** 0.06
5590 H 21.265059042864834 55.61684709427362 123.17004357034676 H 0.0 **** 0.06
5591 C 82.41612507494392 17.394968504129942 26.300330838468454 C 0.0 **** -0.24
5592 H 83.30141573520808 17.940781720123212 25.97387648089139 H 0.0 **** 0.06
5593 H 81.78904829216833 18.049699682800828 26.905067831695277 H 0.0 **** 0.06
5594 H 82.71997084110274 16.532230704110866 26.89226178928638 H 0.0 **** 0.06
5595 H 81.85629659439769 17.058458618110436 25.4280337530773 H 0.0 **** 0.06
5596 C 18.806413563180513 85.40960084152204 108.44401845696227 C 0.0 **** -0.24
5597 H 17.986057437249116 84.90211907487003 108.95145036439767 H 0.0 **** 0.06
5598 H 18.611413464787233 85.4323604893745 107.37178246243556 H 0.0 **** 0.06
5599 H 19.73670766636053 84.87514706689728 108.63428161283548 H 0.0 **** 0.06
5600 H 18.889813490422796 86.42963285672505 108.8206817778016 H 0.0 **** 0.06
5601 C 25.634120255240234 40.66454100191302 78.89461994944665 C 0.0 **** -0.24
5602 H 24.748231997693715 40.748692288285554 79.52329520113946 H 0.0 **** 0.06
5603 H 25.336029314669922 40.65455236790555 77.84575240511853 H 0.0 **** 0.06
5604 H 26.160711361521194 39.739952660541974 79.13105654952449 H 0.0 **** 0.06
5605 H 26.29228566918639 41.51394849086867 79.07777636603458 H 0.0 **** 0.06
5606 C 76.29632775347756 115.55895903899994 71.806587866815 C 0.0 **** -0.24
5607 H 75.58663717643445 116.12341091457887 72.4111756706301 H 0.0 **** 0.06
5608 H 75.78691841113218 115.15786203003799 70.92924901222993 H 0.0 **** 0.06
5609 H 76.70477981523456 114.7378689252781 72.39626407440298 H 0.0 **** 0.06
5610 H 77.10614168498482 116.21533790346788 71.4889808504799 H 0.0 **** 0.06
5611 C 131.47701516911394 77.74839068741994 43.878732308083414 C 0.0 **** -0.24
5612 H 131.07326715803168 78.460020584218 43.158479227822376 H 0.0 **** 0.06
5613 H 132.53550258675665 77.58590547176709 43.67315009177114 H 0.0 **** 0.06
5614 H 130.94104236562316 76.8036277754237 43.795616766225145 H 0.0 **** 0.06
5615 H 131.35893397821638 78.14655535396821 44.88666028476252 H 0.0 **** 0.06
5616 C 124.88268949422242 77.28170197766815 121.27745428831051 C 0.0 **** -0.24
5617 H 124.20703685868409 76.42578283047447 121.25158792339727 H 0.0 **** 0.06
5618 H 125.39076273062122 77.37150525004051 120.31736418070699 H 0.0 **** 0.06
5619 H 125.61977255533178 77.139480015841 122.06766092530778 H 0.0 **** 0.06
5620 H 124.31069472892142 78.1883764718832 121.47303645372762 H 0.0 **** 0.06
5621 C 91.91471055193294 134.16656928427517 65.81824328378059 C 0.0 **** -0.24
5622 H 92.34827076025229 135.150070338593 65.99503754198595 H 0.0 **** 0.06
5623 H 92.30615032328473 133.46081246958846 66.55099651126353 H 0.0 **** 0.06
5624 H 92.1745059574504 133.83014089884733 64.81477961821804 H 0.0 **** 0.06
5625 H 90.83076036362087 134.22510864868428 65.91267397987053 H 0.0 **** 0.06
5626 C 132.67807880956647 79.9759691231938 68.67711569300454 C 0.0 **** -0.24
5627 H 132.8926144820013 80.37066936767366 67.68458097311267 H 0.0 **** 0.06
5628 H 131.79333929385123 80.46864125376901 69.0814018065646 H 0.0 **** 0.06
5629 H 133.5283267910619 80.16125986139484 69.33361381235653 H 0.0 **** 0.06
5630 H 132.49780313698255 78.9034045612136 68.61025785960848 H 0.0 **** 0.06
5631 C 39.48032313768998 122.32023599131703 108.5722552865331 C 0.0 **** -0.24
5632 H 40.30550507663071 122.76792583738074 109.12601392211512 H 0.0 **** 0.06
5633 H 39.8619204434963 121.52290329020363 107.93383132030601 H 0.0 **** 0.06
5634 H 39.00204068131555 123.08166284456537 107.95679524357344 H 0.0 **** 0.06
5635 H 38.75345614841558 121.9099439378898 109.27272429865468 H 0.0 **** 0.06
5636 C 65.53950282992497 53.573003334703 106.95155908071115 C 0.0 **** -0.24
5637 H 65.80741231080236 53.62315466936141 105.89636128009835 H 0.0 **** 0.06
5638 H 64.4549991038777 53.50482044602485 107.0482850791268 H 0.0 **** 0.06
5639 H 65.89446259510805 54.46916775605243 107.45989059587697 H 0.0 **** 0.06
5640 H 66.0003914059447 52.69331916939106 107.40150638877776 H 0.0 **** 0.06
5641 C 58.898094360871085 133.46151046045935 99.08922899686598 C 0.0 **** -0.24
5642 H 59.231859661850024 133.52990977085022 98.05390136059629 H 0.0 **** 0.06
5643 H 58.330462620519484 132.54112797608127 99.22713607464235 H 0.0 **** 0.06
5644 H 58.265664631047 134.31755216223115 99.32369282581746 H 0.0 **** 0.06
5645 H 59.764161678871915 133.4572085396636 99.7499747043127 H 0.0 **** 0.06
5646 C 57.264272081194676 43.77549745027073 107.02260627331513 C 0.0 **** -0.24
5647 H 56.274431064550384 43.37049429921195 106.80937324145674 H 0.0 **** 0.06
5648 H 57.48529013895494 43.65433938184663 108.08277973758653 H 0.0 **** 0.06
5649 H 57.28642533647377 44.83423290606539 106.76458781596611 H 0.0 **** 0.06
5650 H 58.00893938590022 43.24192289719389 106.43168675422477 H 0.0 **** 0.06
5651 C 94.30385108758735 125.13160756294275 130.01977164736766 C 0.0 **** -0.24
5652 H 95.17140157055708 124.62365006306447 130.44144381481036 H 0.0 **** 0.06
5653 H 94.50223602645167 125.38575384544055 128.97876438337647 H 0.0 **** 0.06
5654 H 94.10550068612785 126.04160776053618 130.5847723146569 H 0.0 **** 0.06
5655 H 93.43590385904884 124.47385988509632 130.07476895366875 H 0.0 **** 0.06
5656 C 51.89945211138192 118.40133735776101 117.58463705994518 C 0.0 **** -0.24
5657 H 51.89967195686917 118.89058498371381 116.61154935127354 H 0.0 **** 0.06
5658 H 51.38409504489398 117.44420404336537 117.5104216117303 H 0.0 **** 0.06
5659 H 51.38659692475946 119.03462160977392 118.30914152235039 H 0.0 **** 0.06
5660 H 52.927237463357045 118.23788115649742 117.90891380540904 H 0.0 **** 0.06
5661 C 79.88349897677233 122.07495660706283 91.40958560901338 C 0.0 **** -0.24
5662 H 80.85848175878533 121.92719346314327 90.94313649295204 H 0.0 **** 0.06
5663 H 79.81764197774606 121.46575812295654 92.31150809047752 H 0.0 **** 0.06
5664 H 79.09938120054613 121.77878918705312 90.71297723909059 H 0.0 **** 0.06
5665 H 79.76102345715265 123.12554945797314 91.66964596853353 H 0.0 **** 0.06
5666 C 92.91532725478498 9.479304248893754 0.6358180299497462 C 0.0 **** -0.24
5667 H 93.22276918655047 10.485030724605423 0.9230214327004092 H 0.0 **** 0.06
5668 H 91.8271051056575 9.423471285024732 0.6186053962327378 H 0.0 **** 0.06
5669 H 93.30498187202028 8.760956606876562 1.3575008086656908 H 0.0 **** 0.06
5670 H 93.30720853243162 9.24838803984278 -0.35442981873103463 H 0.0 **** 0.06
5671 C 3.6410620327495167 45.99632541074416 136.33447201131605 C 0.0 **** -0.24
5672 H 3.3489262991792828 46.98055686129304 136.70209447756054 H 0.0 **** 0.06
5673 H 2.855830380002118 45.604122449164805 135.68676124599358 H 0.0 **** 0.06
5674 H 3.7872663554510098 45.32180624893135 137.17786470624284 H 0.0 **** 0.06
5675 H 4.569214395017553 46.08087716134429 135.77033798619914 H 0.0 **** 0.06
5676 C 102.07493839412841 8.710855629899413 107.55098873324917 C 0.0 **** -0.24
5677 H 101.55340867473416 8.378357796282785 108.44869081014299 H 0.0 **** 0.06
5678 H 101.63272970983172 8.23321576557828 106.67634496083271 H 0.0 **** 0.06
5679 H 103.12766315044057 8.436932608308098 107.62138641036904 H 0.0 **** 0.06
5680 H 101.98556196071904 9.793106576112706 107.45913675776293 H 0.0 **** 0.06
5681 C 24.295753700726664 122.03757242354024 80.57805770920936 C 0.0 **** -0.24
5682 H 24.78037443131251 122.9852194752327 80.3397051363613 H 0.0 **** 0.06
5683 H 24.02609039940782 121.52639019504666 79.65366465711037 H 0.0 **** 0.06
5684 H 23.3967679625934 122.22732351646638 81.16524785521422 H 0.0 **** 0.06
5685 H 24.980283548910023 121.41442608267793 81.1530416730729 H 0.0 **** 0.06
5686 C 1.6383150769373458 25.437108518960372 132.5150841516619 C 0.0 **** -0.24
5687 H 2.641874597298255 25.36547315384564 132.09604988832714 H 0.0 **** 0.06
5688 H 0.9192255345434717 25.595974523190705 131.71146677641303 H 0.0 **** 0.06
5689 H 1.5943251780565504 26.272867731325903 133.21375969262624 H 0.0 **** 0.06
5690 H 1.3977920815050595 24.511477815788112 133.04007239121992 H 0.0 **** 0.06
5691 C 34.2660193243326 33.80159707870726 73.11848818113356 C 0.0 **** -0.24
5692 H 34.7106566511369 32.896970391069175 72.70285216484267 H 0.0 **** 0.06
5693 H 33.57368202638028 34.230672831077925 72.3941787689879 H 0.0 **** 0.06
5694 H 35.05235167466003 34.522434696354594 73.34192187123503 H 0.0 **** 0.06
5695 H 33.72844607481045 33.554764430676386 74.0334224174387 H 0.0 **** 0.06
5696 C 105.30665641886515 21.12926878476459 59.414784117779504 C 0.0 **** -0.24
5697 H 105.56804333706012 21.08973822269263 58.35734226407757 H 0.0 **** 0.06
5698 H 106.01250289511967 20.52696978626382 59.98568224779703 H 0.0 **** 0.06
5699 H 104.2986909181277 20.739244734054807 59.5544402259315 H 0.0 **** 0.06
5700 H 105.34784317878871 22.162295736161013 59.75982327590586 H 0.0 **** 0.06
5701 C 77.01633112270788 74.66855169218896 24.960635859823604 C 0.0 **** -0.24
5702 H 76.60751943635398 74.83341817309869 23.963650845403457 H 0.0 **** 0.06
5703 H 78.03453562249156 74.28570466978287 24.87683299962169 H 0.0 **** 0.06
5704 H 76.39833231996359 73.94500626465212 25.491100276269 H 0.0 **** 0.06
5705 H 77.02615802118154 75.61082390347997 25.508971157695697 H 0.0 **** 0.06
5706 C 12.094317142874417 14.912835493518969 126.03623604001984 C 0.0 **** -0.24
5707 H 12.737977112898761 15.791514922665442 126.06522439200472 H 0.0 **** 0.06
5708 H 11.461954086722756 14.955184423654316 125.1482007387826 H 0.0 **** 0.06
5709 H 11.467610230723238 14.89115161956363 126.92762669743308 H 0.0 **** 0.06
5710 H 12.708568236937168 14.012752000463536 126.00186475037489 H 0.0 **** 0.06
5711 C 26.39024191910059 24.510456518538433 125.30346191194806 C 0.0 **** -0.24
5712 H 26.57206170151477 25.57710949243429 125.43559468393852 H 0.0 **** 0.06
5713 H 25.492494562774 24.225180663967194 125.85244958164586 H 0.0 **** 0.06
5714 H 27.2434042316859 23.9470781136566 125.68392872096283 H 0.0 **** 0.06
5715 H 26.25347789583003 24.292965709568108 124.24479371522881 H 0.0 **** 0.06
5716 C 107.76647392448385 135.81328520654841 100.92422636021881 C 0.0 **** -0.24
5717 H 107.93809425665309 136.04644676756843 101.97466111283941 H 0.0 **** 0.06
5718 H 106.70282856923302 135.63670318470867 100.76118815583833 H 0.0 **** 0.06
5719 H 108.32883717812791 134.91915840872713 100.65450443114281 H 0.0 **** 0.06
5720 H 108.09511977043644 136.65022720270773 100.30844957891244 H 0.0 **** 0.06
5721 C 131.42844206729626 123.92384476515107 21.23560349858525 C 0.0 **** -0.24
5722 H 130.833831501007 123.2001925849994 20.67775775515338 H 0.0 **** 0.06
5723 H 131.69358061500162 123.50490341807729 22.206694531243983 H 0.0 **** 0.06
5724 H 130.84909686264078 124.83564765925718 21.379327743258614 H 0.0 **** 0.06
5725 H 132.33641504737346 124.15410233897451 20.67857786106461 H 0.0 **** 0.06
5726 C 88.99317456021913 7.71528293215939 113.96289301554765 C 0.0 **** -0.24
5727 H 88.36842019955505 7.245134019737257 113.20281203553034 H 0.0 **** 0.06
5728 H 88.87373347585172 7.186210993135667 114.90875442537407 H 0.0 **** 0.06
5729 H 88.69074765702142 8.755509758237267 114.08734068709703 H 0.0 **** 0.06
5730 H 90.03598323401555 7.674111265165038 113.65110631826542 H 0.0 **** 0.06
5731 C 30.647499103621158 83.78386937776266 101.75725065375417 C 0.0 **** -0.24
5732 H 30.502539819216167 83.5858138548075 102.81896005281143 H 0.0 **** 0.06
5733 H 31.374952739532148 83.07992199282518 101.35302627314852 H 0.0 **** 0.06
5734 H 31.013814919535207 84.80202381613748 101.6241215991601 H 0.0 **** 0.06
5735 H 29.69932423693936 83.66821306202388 101.23348731260666 H 0.0 **** 0.06
5736 C 85.31303448659133 2.4663145594308844 68.59798450917378 C 0.0 **** -0.24
5737 H 85.762181793476 1.7302458767100575 69.26396769571767 H 0.0 **** 0.06
5738 H 85.79927758323532 2.4191735731294557 67.62296117771493 H 0.0 **** 0.06
5739 H 85.44067463638405 3.4630354569259794 69.0201355481658 H 0.0 **** 0.06
5740 H 84.25000393327011 2.2528033309582156 68.48487361509706 H 0.0 **** 0.06
5741 C 86.06297860031137 57.80462110928126 20.15772673437671 C 0.0 **** -0.24
5742 H 86.95495207819165 57.43765296328672 20.666182031508832 H 0.0 **** 0.06
5743 H 86.05608181612229 57.44233975561788 19.12951968535178 H 0.0 **** 0.06
5744 H 86.06688722050342 58.89419666117551 20.15993109308868 H 0.0 **** 0.06
5745 H 85.17564724786898 57.442803202799055 20.677518954037957 H 0.0 **** 0.06
5746 C 51.9284550782896 13.874162475306804 10.435778706330211 C 0.0 **** -0.24
5747 H 51.399390777001344 13.579324603787654 9.529029733596587 H 0.0 **** 0.06
5748 H 52.86831649763856 13.324391449146361 10.502355593743715 H 0.0 **** 0.06
5749 H 51.31197158536949 13.646099898661419 11.305772766889788 H 0.0 **** 0.06
5750 H 52.13309565171414 14.943765897528806 10.405253975468383 H 0.0 **** 0.06
5751 C 115.64433122325917 112.2781375148937 121.46119845967007 C 0.0 **** -0.24
5752 H 116.27451835035143 113.16784556008864 121.4483970124478 H 0.0 **** 0.06
5753 H 115.84264527385196 111.70652185553081 122.36861358009367 H 0.0 **** 0.06
5754 H 115.86498813509468 111.66332757797252 120.58865543701626 H 0.0 **** 0.06
5755 H 114.59609455578669 112.57588785780447 121.44088409901747 H 0.0 **** 0.06
5756 C 122.71006922765679 64.30393828059161 104.3182451490065 C 0.0 **** -0.24
5757 H 123.20726942043467 63.984919452161364 105.23420585279764 H 0.0 **** 0.06
5758 H 123.4302231409347 64.80332746322387 103.66941551921688 H 0.0 **** 0.06
5759 H 121.90332169990177 64.99362657496522 104.56393496977309 H 0.0 **** 0.06
5760 H 122.30139613587022 63.4337671035573 103.80492510232551 H 0.0 **** 0.06
5761 C 66.0779909648893 39.224596515745475 108.33715961877459 C 0.0 **** -0.24
5762 H 65.66285593001638 38.34797224177515 107.83937766877983 H 0.0 **** 0.06
5763 H 65.37576613767499 40.05466082368247 108.25569410951493 H 0.0 **** 0.06
5764 H 67.02070987939848 39.49742449214591 107.86366519373382 H 0.0 **** 0.06
5765 H 66.25205547103309 38.996374506596624 109.38897963769625 H 0.0 **** 0.06
5766 C 15.259329110334619 86.20596562646261 20.680073163688576 C 0.0 **** -0.24
5767 H 16.301587410076706 86.2424295831288 20.996280462668324 H 0.0 **** 0.06
5768 H 14.748485936076605 87.11128581122063 21.008505335612995 H 0.0 **** 0.06
5769 H 14.775520631285275 85.33469266145016 21.122881126372192 H 0.0 **** 0.06
5770 H 15.21127858195571 86.13533622871944 19.593963297007576 H 0.0 **** 0.06
5771 C 24.32230300345728 111.94270022211174 92.9805600457676 C 0.0 **** -0.24
5772 H 24.654175959792667 112.87753479357832 93.43302414163765 H 0.0 **** 0.06
5773 H 24.270007449618276 111.16749225986194 93.74527559372805 H 0.0 **** 0.06
5774 H 25.028806469630396 111.64302759416614 92.20723593633976 H 0.0 **** 0.06
5775 H 23.335847409796344 112.0831917658503 92.53751761344478 H 0.0 **** 0.06
5776 C 33.70363184045274 44.59110381778004 108.0093653830658 C 0.0 **** -0.24
5777 H 33.91513562851975 45.363208781728815 108.74946886145227 H 0.0 **** 0.06
5778 H 33.75444360969945 45.02279872212904 107.00962004007258 H 0.0 **** 0.06
5779 H 32.70553324906402 44.187113559371085 108.1813658949952 H 0.0 **** 0.06
5780 H 34.43942052582858 43.79179087730313 108.09787468384333 H 0.0 **** 0.06
5781 C 96.4686609398954 14.918274243182253 131.65807892121484 C 0.0 **** -0.24
5782 H 95.72859180637997 15.129679814422417 130.88654965861866 H 0.0 **** 0.06
5783 H 97.394043854098 15.446297436477778 131.42741240278733 H 0.0 **** 0.06
5784 H 96.66084792518848 13.84605249751732 131.69145158105556 H 0.0 **** 0.06
5785 H 96.0909603291358 15.250814987387912 132.62447372679298 H 0.0 **** 0.06
5786 C 38.8481914872641 134.99547265560196 43.297303745876434 C 0.0 **** -0.24
5787 H 38.77804158571314 136.0730219091048 43.151898737357385 H 0.0 **** 0.06
5788 H 39.761424336131995 134.62438706685788 42.831935806491344 H 0.0 **** 0.06
5789 H 37.984916908328216 134.51075840869558 42.84124983955573 H 0.0 **** 0.06
5790 H 38.86768250694547 134.77318601432685 44.36460025982221 H 0.0 **** 0.06
5791 C 95.97340034596229 23.829341426139877 86.34038910854466 C 0.0 **** -0.24
5792 H 95.5404271722029 24.525540761187983 87.05846763094469 H 0.0 **** 0.06
5793 H 96.02031950753172 24.301920828353502 85.35982635516956 H 0.0 **** 0.06
5794 H 95.35283463997351 22.934084371387144 86.28356348285514 H 0.0 **** 0.06
5795 H 96.97800536516331 23.554972371406336 86.66175404804477 H 0.0 **** 0.06
5796 C 5.886555999612881 61.75321933345508 125.05394342944635 C 0.0 **** -0.24
5797 H 6.261956419132389 62.774301230171915 125.12411011318073 H 0.0 **** 0.06
5798 H 6.48620801006615 61.19358858941473 124.33555147969952 H 0.0 **** 0.06
5799 H 4.847517958975004 61.77143907052644 124.72587022391804 H 0.0 **** 0.06
5800 H 5.950925870217986 61.275360630544796 126.03184458662162 H 0.0 **** 0.06
5801 C 20.338949417420963 1.9437553483404884 31.00328183903858 C 0.0 **** -0.24
5802 H 20.68471356448346 1.159851949274298 31.676608391344104 H 0.0 **** 0.06
5803 H 20.52695915584391 2.918627755857358 31.454648931220333 H 0.0 **** 0.06
5804 H 19.270628220980285 1.825066835281234 30.824942616705357 H 0.0 **** 0.06
5805 H 20.876483759654747 1.8716817503245693 30.05711517933196 H 0.0 **** 0.06
5806 C 38.243084579398015 59.019911034546794 16.092204066981097 C 0.0 **** -0.24
5807 H 39.03202575283814 58.81325221327188 15.36793954893416 H 0.0 **** 0.06
5808 H 37.32556830601146 58.52055199471857 15.780669949977678 H 0.0 **** 0.06
5809 H 38.072515840276566 60.09561068866378 16.144335248469275 H 0.0 **** 0.06
5810 H 38.544636055607526 58.6516287389486 17.07223206129015 H 0.0 **** 0.06
5811 C 120.14198887415931 118.25302157679238 56.42472656203486 C 0.0 **** -0.24
5812 H 120.07334711973792 117.39275465198452 55.758508719785766 H 0.0 **** 0.06
5813 H 119.33732074584618 118.95283181268152 56.19915861431531 H 0.0 **** 0.06
5814 H 121.10375168085677 118.74596463249098 56.2817457093079 H 0.0 **** 0.06
5815 H 120.05484349887556 117.91828921044933 57.45837688345699 H 0.0 **** 0.06
5816 C 33.178083887922746 75.54936315320933 57.701450503888395 C 0.0 **** -0.24
5817 H 32.625061173594055 74.77006051421961 57.17624637490417 H 0.0 **** 0.06
5818 H 32.79624192716459 76.52698868994071 57.404827586005865 H 0.0 **** 0.06
5819 H 34.23525079926374 75.47923045676252 57.445779664001975 H 0.0 **** 0.06
5820 H 33.054427097499584 75.42121238398107 58.77690782547586 H 0.0 **** 0.06
5821 C 118.48498381963638 61.49598148420455 20.20955728543666 C 0.0 **** -0.24
5822 H 118.37186051830042 60.43200838460986 20.417406800356417 H 0.0 **** 0.06
5823 H 118.21565106548223 62.07011561402629 21.09634359090785 H 0.0 **** 0.06
5824 H 117.83135702421953 61.77514395218567 19.383376086421805 H 0.0 **** 0.06
5825 H 119.52059385556655 61.704793079580014 19.940556078803922 H 0.0 **** 0.06
5826 C 17.215739771978576 49.34023784900671 44.111847523062295 C 0.0 **** -0.24
5827 H 17.58020704938957 50.12605400243831 44.772893363018 H 0.0 **** 0.06
5828 H 17.462203804440833 49.59123274518163 43.07879319905766 H 0.0 **** 0.06
5829 H 16.134284028527304 49.250625781563656 44.21604075459311 H 0.0 **** 0.06
5830 H 17.68602450924857 48.39406790937255 44.378290275601444 H 0.0 **** 0.06
5831 C 129.8163408956119 128.88182457000875 6.570679803554981 C 0.0 **** -0.24
5832 H 129.7259632167416 129.32930961755892 5.580688850397678 H 0.0 **** 0.06
5833 H 129.00226461446806 128.17172323367117 6.723365962866069 H 0.0 **** 0.06
5834 H 129.76359413147847 129.66298975207872 7.32887686764559 H 0.0 **** 0.06
5835 H 130.77062529016007 128.3630479753758 6.64912150712334 H 0.0 **** 0.06
5836 C 102.74068331869637 20.186654174007685 7.660295531513224 C 0.0 **** -0.24
5837 H 103.75877307383598 19.826972962533972 7.808982225610823 H 0.0 **** 0.06
5838 H 102.08404892188543 19.73878638980557 8.407926389167383 H 0.0 **** 0.06
5839 H 102.39863719615738 19.9083619921837 6.663298545900776 H 0.0 **** 0.06
5840 H 102.72025158134369 21.271568624090918 7.762021772848314 H 0.0 **** 0.06
5841 C 128.49692944931607 73.67757455636718 97.47069998380636 C 0.0 **** -0.24
5842 H 127.4323340735503 73.49139053812564 97.33188996354224 H 0.0 **** 0.06
5843 H 128.67927968299418 73.99919127151071 98.49658603514908 H 0.0 **** 0.06
5844 H 128.82199675832084 74.45855685821232 96.78291660514884 H 0.0 **** 0.06
5845 H 129.0562646538563 72.76324416998943 97.27143092762469 H 0.0 **** 0.06
5846 C 17.467930544562364 18.585112306278745 79.7591783365452 C 0.0 **** -0.24
5847 H 18.107894711993005 19.14347328746061 80.44395789246386 H 0.0 **** 0.06
5848 H 17.08392926356661 17.698486186822606 80.26326779512863 H 0.0 **** 0.06
5849 H 18.04641184940165 18.28537016933899 78.88542660689808 H 0.0 **** 0.06
5850 H 16.636125989207557 19.21534771520942 79.445094659382 H 0.0 **** 0.06
5851 C 122.0513753513801 78.73521425966507 44.80281547173746 C 0.0 **** -0.24
5852 H 121.5895960001452 79.55572145032247 45.351911853972354 H 0.0 **** 0.06
5853 H 123.03459894526918 79.04465916591255 44.44560353443154 H 0.0 **** 0.06
5854 H 121.42375169102525 78.4684561314404 43.95275154222267 H 0.0 **** 0.06
5855 H 122.15859085756017 77.87298195412825 45.461037586764974 H 0.0 **** 0.06
5856 C 2.5164294830510414 108.63998195217954 51.99904489431924 C 0.0 **** -0.24
5857 H 3.524112322087575 108.96299442000077 52.263000127470605 H 0.0 **** 0.06
5858 H 1.853813415730059 109.50477549462946 51.9710606134725 H 0.0 **** 0.06
5859 H 2.156497976546774 107.92873865153689 52.74189770623269 H 0.0 **** 0.06
5860 H 2.5341085247304136 108.16359946537455 51.0179743993732 H 0.0 **** 0.06
5861 C 0.5396756731358892 117.93412852661831 49.5037567180982 C 0.0 **** -0.24
5862 H 0.6602580784695533 118.41248935466317 50.47551741104675 H 0.0 **** 0.06
5863 H 1.3489309992336302 117.22100272172219 49.34711234459343 H 0.0 **** 0.06
5864 H 0.5662586708664321 118.69177890311946 48.71993508016499 H 0.0 **** 0.06
5865 H -0.4170889559316606 117.41216714234167 49.47229477992437 H 0.0 **** 0.06
5866 C 89.53947746495032 110.72371757808423 128.64104407679932 C 0.0 **** -0.24
5867 H 89.53665266936031 110.41481896664874 129.68623244178622 H 0.0 **** 0.06
5868 H 89.05855103296557 111.69764362448637 128.54829764876277 H 0.0 **** 0.06
5869 H 88.99675393482022 109.99076244929145 128.0439150943757 H 0.0 **** 0.06
5870 H 90.56839740933253 110.79161252000497 128.28587348625607 H 0.0 **** 0.06
5871 C 87.82949039503826 100.64444581256119 35.25696966174956 C 0.0 **** -0.24
5872 H 88.33616662935404 99.7321439998417 34.94266623508096 H 0.0 **** 0.06
5873 H 88.57032591991336 101.40804545206186 35.49380372453926 H 0.0 **** 0.06
5874 H 87.22444770854383 100.43799288468672 36.140284801998554 H 0.0 **** 0.06
5875 H 87.18616148660271 100.99791136512228 34.45048647370261 H 0.0 **** 0.06
5876 C 69.98509360236686 127.2732321228167 70.29469758834139 C 0.0 **** -0.24
5877 H 70.06676433405329 128.1488655133591 69.6504708160949 H 0.0 **** 0.06
5878 H 69.9815234937115 127.5891934233236 71.3381609554987 H 0.0 **** 0.06
5879 H 70.83251100071789 126.61083047556008 70.11759626226177 H 0.0 **** 0.06
5880 H 69.05822791308296 126.74438914703308 70.07231465782883 H 0.0 **** 0.06
5881 C 112.26133602803 71.91736660136198 1.808418803687914 C 0.0 **** -0.24
5882 H 112.40193976244242 71.89290037956742 2.889118606566285 H 0.0 **** 0.06
5883 H 111.21370075103573 72.12195087655238 1.5829708922287011 H 0.0 **** 0.06
5884 H 112.54302237024714 70.95377829781228 1.383747811021891 H 0.0 **** 0.06
5885 H 112.8857908542546 72.70039588427451 1.3779511662653476 H 0.0 **** 0.06
5886 C 37.7862305992885 32.9313159597686 29.409147752012323 C 0.0 **** -0.24
5887 H 38.58225375287742 32.97889086848451 28.66571056393353 H 0.0 **** 0.06
5888 H 38.21953915535204 32.97723712109854 30.408660153404533 H 0.0 **** 0.06
5889 H 37.236648807949734 31.997218459123218 29.293537335414094 H 0.0 **** 0.06
5890 H 37.10731059196263 33.77197104740918 29.26812760403819 H 0.0 **** 0.06
5891 C 52.40507112010067 124.67638598485698 13.30048319499316 C 0.0 **** -0.24
5892 H 52.12086099758693 125.02295600416502 14.294114360889417 H 0.0 **** 0.06
5893 H 51.53069967610645 124.26506293445252 12.795396052538806 H 0.0 **** 0.06
5894 H 53.16996269229912 123.9056756190179 13.389721226754617 H 0.0 **** 0.06
5895 H 52.797937129343694 125.51364786361128 12.722995583576452 H 0.0 **** 0.06
5896 C 125.22507017057981 3.7337136951940693 91.31557643264466 C 0.0 **** -0.24
5897 H 124.92996230383852 3.8286327189048848 92.36089878482464 H 0.0 **** 0.06
5898 H 124.98640890826528 4.656154693388714 90.78571560936267 H 0.0 **** 0.06
5899 H 124.68495251544385 2.902848792158295 90.86088475022049 H 0.0 **** 0.06
5900 H 126.29677330763025 3.546408812900495 91.25556569514781 H 0.0 **** 0.06
5901 C 78.52067308878293 54.85388854675841 55.30401605095278 C 0.0 **** -0.24
5902 H 78.59844672180752 55.91689672355824 55.07482189449962 H 0.0 **** 0.06
5903 H 78.2122714237468 54.31087871281892 54.410062001523386 H 0.0 **** 0.06
5904 H 77.78288154654955 54.705823561826094 56.09261954113862 H 0.0 **** 0.06
5905 H 79.4893461346179 54.48305687266134 55.63941055343645 H 0.0 **** 0.06
5906 C 122.45230937492656 130.94233117727072 107.49130619216561 C 0.0 **** -0.24
5907 H 123.31341902211418 130.56797281535654 108.04516815043291 H 0.0 **** 0.06
5908 H 122.71231858041077 131.88441535025976 107.0085943862536 H 0.0 **** 0.06
5909 H 121.62000210908997 131.1018465232555 108.17696320621621 H 0.0 **** 0.06
5910 H 122.16381050465347 130.21301126069272 106.73324154999597 H 0.0 **** 0.06
5911 C 84.0526854676805 30.269321491313207 9.47012656064398 C 0.0 **** -0.24
5912 H 83.02530496390143 30.581529754903244 9.654157276827014 H 0.0 **** 0.06
5913 H 84.58363428590162 31.06080449266969 8.940223624862956 H 0.0 **** 0.06
5914 H 84.05406917122791 29.362656430110462 8.866529398741438 H 0.0 **** 0.06
5915 H 84.54801849801939 30.073315225584594 10.421565385118626 H 0.0 **** 0.06
5916 C 93.88680973897392 70.49322637516951 77.18564723321879 C 0.0 **** -0.24
5917 H 93.88243618671116 70.1547184364754 78.22253989199817 H 0.0 **** 0.06
5918 H 92.96565543679225 70.1779291840945 76.6968380294424 H 0.0 **** 0.06
5919 H 94.74138377654796 70.05921124583469 76.6665767721534 H 0.0 **** 0.06
5920 H 93.95986855995945 71.5810561908155 77.15972770258361 H 0.0 **** 0.06
5921 C 103.3905063387592 86.05591527988848 95.44972979295986 C 0.0 **** -0.24
5922 H 102.57945708698401 86.69884886493271 95.79132687536534 H 0.0 **** 0.06
5923 H 104.25049370717656 86.17337402853227 96.1103342947653 H 0.0 **** 0.06
5924 H 103.67264209284045 86.33393019606295 94.4339437855505 H 0.0 **** 0.06
5925 H 103.06101962494299 85.01682544345263 95.46343729158642 H 0.0 **** 0.06
5926 C 57.61771068929704 95.47276961538671 87.69618256473487 C 0.0 **** -0.24
5927 H 58.16052820469406 94.60334379395499 87.32509233964181 H 0.0 **** 0.06
5928 H 58.209133410188144 96.37198225902125 87.52127433680123 H 0.0 **** 0.06
5929 H 57.43662015831461 95.35768148182513 88.76442081523452 H 0.0 **** 0.06
5930 H 56.66478431820906 95.55569117326257 87.17340688176456 H 0.0 **** 0.06
5931 C 113.47687121451148 70.28023021384091 126.01719442187438 C 0.0 **** -0.24
5932 H 113.89458109802843 70.517390519439 126.99515222226806 H 0.0 **** 0.06
5933 H 112.38791168693157 70.29706026446392 126.07260208163262 H 0.0 **** 0.06
5934 H 113.80954326694655 69.28800941306972 125.71144570886551 H 0.0 **** 0.06
5935 H 113.81498090860211 71.01758029242924 125.28965561069614 H 0.0 **** 0.06
5936 C 9.849342920158175 98.05154817686322 87.00465136945843 C 0.0 **** -0.24
5937 H 10.330521431508927 97.75801335891528 87.9373917374428 H 0.0 **** 0.06
5938 H 9.458345372401435 97.16524175015499 86.50350172569279 H 0.0 **** 0.06
5939 H 10.578469165578941 98.54166394053742 86.35920149989511 H 0.0 **** 0.06
5940 H 9.031244096967509 98.73950568966954 87.21786683478683 H 0.0 **** 0.06
5941 C 36.301163868048064 122.77322025758642 78.49650498252234 C 0.0 **** -0.24
5942 H 36.60469308554215 123.60570155657055 79.12990049984927 H 0.0 **** 0.06
5943 H 37.18629513613797 122.25348953955137 78.13055600694508 H 0.0 **** 0.06
5944 H 35.725396142757916 123.15104984896507 77.65192202968872 H 0.0 **** 0.06
5945 H 35.68694047866313 122.08161466837038 79.07472681141171 H 0.0 **** 0.06
5946 C 54.91366092691048 62.63834500903967 100.50796798554208 C 0.0 **** -0.24
5947 H 54.38402773395204 62.5433430935678 101.45538253778514 H 0.0 **** 0.06
5948 H 54.603513755770166 61.837434582173756 99.8365632659111 H 0.0 **** 0.06
5949 H 55.98830287853215 62.56997036266095 100.6844609453446 H 0.0 **** 0.06
5950 H 54.680419222822024 63.602785577769694 100.05605893539405 H 0.0 **** 0.06
5951 C 115.24940970145991 74.00700964531086 25.64027055742966 C 0.0 **** -0.24
5952 H 115.46273481518494 75.05934743511216 25.82987717539058 H 0.0 **** 0.06
5953 H 114.29971502841028 73.91810017347625 25.113106277294605 H 0.0 **** 0.06
5954 H 115.19168489197176 73.47130475823874 26.587232612300284 H 0.0 **** 0.06
5955 H 116.04566054497673 73.58064019212983 25.029279729004713 H 0.0 **** 0.06
5956 C 52.86100916654277 112.65143224383837 81.09427205947985 C 0.0 **** -0.24
5957 H 53.84715800669218 112.20610046859855 81.2268584470401 H 0.0 **** 0.06
5958 H 52.26967267021308 112.03099746066721 80.42090820036759 H 0.0 **** 0.06
5959 H 52.96692734214389 113.64992707254726 80.66971877029637 H 0.0 **** 0.06
5960 H 52.361067334145616 112.71945842492337 82.06050219143039 H 0.0 **** 0.06
5961 C 94.83023084549332 102.81723614697121 91.38585082155015 C 0.0 **** -0.24
5962 H 94.31347390541585 103.23139464864369 92.25207602304201 H 0.0 **** 0.06
5963 H 94.1677192128732 102.84420782228605 90.52075202686652 H 0.0 **** 0.06
5964 H 95.11730204556983 101.78671591439891 91.59170070810455 H 0.0 **** 0.06
5965 H 95.72190795061438 103.4087993307792 91.17879046162591 H 0.0 **** 0.06
5966 C 90.89517207865637 123.3043100937499 2.8316619085709362 C 0.0 **** -0.24
5967 H 91.4055546165514 122.47457922710589 2.342249574497316 H 0.0 **** 0.06
5968 H 91.38417612841732 123.52125119154971 3.7815985816342277 H 0.0 **** 0.06
5969 H 89.85392498863685 123.03611298540096 3.0104323468300436 H 0.0 **** 0.06
5970 H 90.93890448354574 124.18577773851837 2.1908620992456918 H 0.0 **** 0.06
5971 C 91.80044837074917 46.341845018639944 20.23929057208045 C 0.0 **** -0.24
5972 H 92.65669489948588 46.28490682162891 19.568567901652443 H 0.0 **** 0.06
5973 H 90.90870563689298 46.60458278793756 19.668820681731347 H 0.0 **** 0.06
5974 H 91.98370321944665 47.101595422026364 20.99845656318132 H 0.0 **** 0.06
5975 H 91.65140385195457 45.37577692847909 20.72159673967792 H 0.0 **** 0.06
5976 C 90.55281658092693 54.196874821902554 2.547051075984001 C 0.0 **** -0.24
5977 H 89.9716688927225 53.851531707258346 3.401843763856988 H 0.0 **** 0.06
5978 H 89.90557250431787 54.26518433207326 1.6720207724897023 H 0.0 **** 0.06
5979 H 91.3607517659297 53.49368746272603 2.3482816782300233 H 0.0 **** 0.06
5980 H 90.97180767992174 55.1787389759688 2.7664486312471013 H 0.0 **** 0.06
5981 C 44.41572557454111 113.27939398066161 83.41548519705555 C 0.0 **** -0.24
5982 H 44.085589769596766 112.70500224691332 82.55033115521309 H 0.0 **** 0.06
5983 H 43.56289785412636 113.48008725612792 84.06510910357294 H 0.0 **** 0.06
5984 H 44.849204426736634 114.22165042808456 83.08251693266782 H 0.0 **** 0.06
5985 H 45.16535792999747 112.70957077834933 83.96582143715942 H 0.0 **** 0.06
5986 C 38.21471423911055 94.80548970226046 104.50898181943364 C 0.0 **** -0.24
5987 H 38.87623694261217 93.95768535600445 104.33432641918824 H 0.0 **** 0.06
5988 H 37.196281672146085 94.53427944243651 104.2268448526226 H 0.0 **** 0.06
5989 H 38.54438780752332 95.65453973625786 103.90957087925403 H 0.0 **** 0.06
5990 H 38.23916204654515 95.07438863722564 105.56488651074301 H 0.0 **** 0.06
5991 C 56.13038188526039 19.558146791997416 104.43981010713247 C 0.0 **** -0.24
5992 H 55.88350725134154 19.98474231939514 105.41264426062438 H 0.0 **** 0.06
5993 H 55.34089969014309 19.798453880397 103.72792991016763 H 0.0 **** 0.06
5994 H 56.22086572523608 18.475891702351376 104.53069816988054 H 0.0 **** 0.06
5995 H 57.074931628342796 19.974517351212484 104.09025126394353 H 0.0 **** 0.06
5996 C 62.4754435222432 58.59881033001122 19.210013300934293 C 0.0 **** -0.24
5997 H 63.28307037922224 58.15145297609098 18.629279807033754 H 0.0 **** 0.06
5998 H 62.897116737861 59.25673139165497 19.969807767181834 H 0.0 **** 0.06
5999 H 61.89513071511993 57.81180336339911 19.691653356430095 H 0.0 **** 0.06
6000 H 61.828914834407826 59.17429710363852 18.547883655207016 H 0.0 **** 0.06
6001 C 73.09967775592418 90.00118895932766 14.15910807494788 C 0.0 **** -0.24
6002 H 72.51375100167502 89.31060345731777 13.551886860271395 H 0.0 **** 0.06
6003 H 72.55816742186926 90.94207169609831 14.26404310539209 H 0.0 **** 0.06
6004 H 74.05916028603326 90.18520715724594 13.675654205913048 H 0.0 **** 0.06
6005 H 73.26662642610995 89.56591099928053 15.144599485758249 H 0.0 **** 0.06
6006 C 120.5441029688584 62.921094941828045 38.44474959049478 C 0.0 **** -0.24
6007 H 120.45066187576157 63.73084887174079 37.72101040893767 H 0.0 **** 0.06
6008 H 120.04542001347875 63.20439953849865 39.37196040982832 H 0.0 **** 0.06
6009 H 121.59893858343304 62.73067273409721 38.64255320305955 H 0.0 **** 0.06
6010 H 120.08037009241633 62.01966713270998 38.044179016279145 H 0.0 **** 0.06
6011 C 1.2690609402246196 40.60916298332205 103.23970269781 C 0.0 **** -0.24
6012 H 1.9901276323222987 40.944998994336856 102.49427525385599 H 0.0 **** 0.06
6013 H 1.3451501647712405 39.52783751363552 103.35754479228734 H 0.0 **** 0.06
6014 H 0.2622244863050014 40.868489683740336 102.9133561793036 H 0.0 **** 0.06
6015 H 1.4784309394757997 41.09423118010665 104.19232856412168 H 0.0 **** 0.06
6016 C 15.329160738544545 62.43276377816423 90.28476045064846 C 0.0 **** -0.24
6017 H 15.058999005028028 62.17954990535378 91.31012499634483 H 0.0 **** 0.06
6018 H 14.48733180290236 62.22486888273228 89.62508267353513 H 0.0 **** 0.06
6019 H 16.18758261133965 61.834972621154506 89.97818307254607 H 0.0 **** 0.06
6020 H 15.583865336874581 63.491441400405634 90.22780995186125 H 0.0 **** 0.06
6021 C 42.23034494442357 33.22184766597479 76.68568773669887 C 0.0 **** -0.24
6022 H 41.355242851572456 32.5756341640018 76.76230726903006 H 0.0 **** 0.06
6023 H 42.13240131175159 34.050107190709724 77.3884389939397 H 0.0 **** 0.06
6024 H 42.30502961699491 33.61260521090773 75.67147092205016 H 0.0 **** 0.06
6025 H 43.12672759888962 32.6489538239791 76.92197531235081 H 0.0 **** 0.06
6026 C 91.96407128247839 60.71089921299318 105.38500389002866 C 0.0 **** -0.24
6027 H 92.94720208228351 60.33962423623453 105.09592124205801 H 0.0 **** 0.06
6028 H 91.34682940565042 59.87956481641436 105.72528559514797 H 0.0 **** 0.06
6029 H 91.49062824665526 61.18968393785036 104.52803135475483 H 0.0 **** 0.06
6030 H 92.07410120440134 61.43628816267571 106.19142832766306 H 0.0 **** 0.06
6031 C 17.530739502236912 1.566364441074036 94.37613556832326 C 0.0 **** -0.24
6032 H 18.593213817657258 1.4954478203203614 94.61002495711398 H 0.0 **** 0.06
6033 H 17.26402963654955 0.7892757089641371 93.65972226678815 H 0.0 **** 0.06
6034 H 17.319617262897843 2.5464262547638477 93.94648527218493 H 0.0 **** 0.06
6035 H 16.948202730162656 1.4362813190808374 95.28748911865921 H 0.0 **** 0.06
6036 C 85.46867759141554 73.33796604967517 84.54587583610407 C 0.0 **** -0.24
6037 H 84.5898555081325 72.77249335318177 84.23543831609078 H 0.0 **** 0.06
6038 H 85.38670968549297 74.36337505123208 84.1874938679876 H 0.0 **** 0.06
6039 H 86.36397497463673 72.87664442006616 84.12735692636909 H 0.0 **** 0.06
6040 H 85.53537150168876 73.33738211713685 85.63403835326989 H 0.0 **** 0.06
6041 C 89.17645967998328 65.72581782138019 0.5739813540678824 C 0.0 **** -0.24
6042 H 89.98405224556362 66.39728087538816 0.8665624596964676 H 0.0 **** 0.06
6043 H 89.59431326398885 64.76333503920154 0.2760360329622813 H 0.0 **** 0.06
6044 H 88.62808966333324 66.15935577757932 -0.2619733089429701 H 0.0 **** 0.06
6045 H 88.50020393468427 65.58368353476965 1.417083414683077 H 0.0 **** 0.06
6046 C 117.0700738477106 72.2984316199639 4.337418755067063 C 0.0 **** -0.24
6047 H 116.57356929752666 72.90059348798505 3.5761773994872215 H 0.0 **** 0.06
6048 H 116.84418433993656 72.70341481337991 5.323862674143982 H 0.0 **** 0.06
6049 H 118.14719533755823 72.32076473907034 4.1725837511554005 H 0.0 **** 0.06
6050 H 116.71400340648358 71.27003963833835 4.276922211489136 H 0.0 **** 0.06
6051 C 3.0215039165748934 128.59122459677099 53.87293208534658 C 0.0 **** -0.24
6052 H 2.2063009081589335 129.20614500870258 54.25583162724109 H 0.0 **** 0.06
6053 H 3.3443387524283033 127.89449506407635 54.64683434724407 H 0.0 **** 0.06
6054 H 3.8560095882745102 129.2309805649261 53.58842975025101 H 0.0 **** 0.06
6055 H 2.6771455840559035 128.03433754659054 53.00202728497334 H 0.0 **** 0.06
6056 C 130.28499709764088 51.43382967270004 58.45112477770971 C 0.0 **** -0.24
6057 H 130.1897554472044 50.740199569861744 57.616651711727286 H 0.0 **** 0.06
6058 H 130.94481498907868 51.0065046921346 59.206321958332865 H 0.0 **** 0.06
6059 H 129.30235975861035 51.61517811070418 58.88651042537457 H 0.0 **** 0.06
6060 H 130.7023806311201 52.37566972662488 58.094271328158854 H 0.0 **** 0.06
6061 C 89.74055669670588 76.25457207477967 132.9267503597622 C 0.0 **** -0.24
6062 H 89.28140286984609 76.01183732288976 133.8854362826059 H 0.0 **** 0.06
6063 H 88.96644425516624 76.54500687144724 132.21691475257455 H 0.0 **** 0.06
6064 H 90.27277255221429 75.38141845802724 132.54883089245584 H 0.0 **** 0.06
6065 H 90.44241213683082 77.0783400426943 133.0581670819064 H 0.0 **** 0.06
6066 C 46.252697045131086 47.28033171662105 50.89266180419662 C 0.0 **** -0.24
6067 H 46.46555425486699 46.29296440546159 51.30409554954724 H 0.0 **** 0.06
6068 H 47.10637525321425 47.93638083021045 51.06525722422009 H 0.0 **** 0.06
6069 H 45.370708771043326 47.69513295685152 51.38025759917116 H 0.0 **** 0.06
6070 H 46.07027952703123 47.19471397025052 49.82198983818449 H 0.0 **** 0.06
6071 C 68.32379770612272 10.98607322445325 24.540742746336377 C 0.0 **** -0.24
6072 H 68.35239443458414 11.917403145768773 25.106854831720256 H 0.0 **** 0.06
6073 H 68.42374793734493 11.204394414767023 23.477914993684664 H 0.0 **** 0.06
6074 H 67.37477412918406 10.481525927328917 24.721738136418793 H 0.0 **** 0.06
6075 H 69.1441155509529 10.342500290953694 24.85956652973627 H 0.0 **** 0.06
6076 C 29.347905003502454 33.370691263759625 56.4100593152308 C 0.0 **** -0.24
6077 H 28.387479773522713 32.9341552207957 56.136856642653015 H 0.0 **** 0.06
6078 H 29.731288330482144 32.87445617201536 57.30198983449708 H 0.0 **** 0.06
6079 H 29.219154016001312 34.43383230399931 56.61192647490549 H 0.0 **** 0.06
6080 H 30.053412282011188 33.23942423719183 55.5891271946698 H 0.0 **** 0.06
6081 C 25.675616007216036 68.51837884568931 8.395810036334353 C 0.0 **** -0.24
6082 H 25.900693828879618 68.12656862169337 9.38801707611833 H 0.0 **** 0.06
6083 H 26.3988774846269 69.29239578903992 8.138565635809897 H 0.0 **** 0.06
6084 H 24.671262061225228 68.94235755343192 8.39311069192695 H 0.0 **** 0.06
6085 H 25.731871205500724 67.71133040524853 7.6655955398472315 H 0.0 **** 0.06
6086 C 115.15903602484326 41.60578159367941 88.53024368252704 C 0.0 **** -0.24
6087 H 114.57483784213946 41.75047274793792 87.62140155082 H 0.0 **** 0.06
6088 H 115.92131090026669 42.38082484186623 88.60001452903603 H 0.0 **** 0.06
6089 H 115.63606154616932 40.626615912114914 88.50290810377507 H 0.0 **** 0.06
6090 H 114.50031613665487 41.66506025923627 89.39759383421148 H 0.0 **** 0.06
6091 C 30.78573012937116 63.886916503145045 24.636570219047933 C 0.0 **** -0.24
6092 H 30.746507444438464 64.97386379095887 24.7216545010833 H 0.0 **** 0.06
6093 H 30.457103092461352 63.43766184435279 25.57464199821942 H 0.0 **** 0.06
6094 H 31.808219875650195 63.57717596527216 24.423759233880467 H 0.0 **** 0.06
6095 H 30.130922171713763 63.5626663258074 23.82803302034339 H 0.0 **** 0.06
6096 C 80.3759457350885 94.65358360024153 10.925426361540815 C 0.0 **** -0.24
6097 H 79.65756118596497 95.46189817078368 10.787501477605232 H 0.0 **** 0.06
6098 H 81.36209969195613 94.98699541590173 10.602389223772988 H 0.0 **** 0.06
6099 H 80.07019688103269 93.79223609865342 10.331536488067712 H 0.0 **** 0.06
6100 H 80.41154863205594 94.37530406352239 11.978291953497575 H 0.0 **** 0.06
6101 C 18.296118740856883 38.337753951894 6.5419095270171255 C 0.0 **** -0.24
6102 H 18.70077791347589 38.97698794058357 7.326207872881465 H 0.0 **** 0.06
6103 H 17.206733508981415 38.36990418284529 6.573314502346616 H 0.0 **** 0.06
6104 H 18.63392861049067 37.313036023034556 6.6978926613767555 H 0.0 **** 0.06
6105 H 18.642160869185346 38.6905823430659 5.57121340636575 H 0.0 **** 0.06
6106 C 18.602274630487813 86.89172740667703 11.251005534485188 C 0.0 **** -0.24
6107 H 17.80457759547548 87.5011617147676 11.674824235786545 H 0.0 **** 0.06
6108 H 19.076009747377185 87.43207213057242 10.431339329817064 H 0.0 **** 0.06
6109 H 18.18483377759263 85.9561354406277 10.877461806662595 H 0.0 **** 0.06
6110 H 19.34348966986626 86.67679259909647 12.02103370021726 H 0.0 **** 0.06
6111 C 119.67768068957676 89.90365615180903 50.06678661074089 C 0.0 **** -0.24
6112 H 119.94615860218082 90.94305123333947 50.25655107555497 H 0.0 **** 0.06
6113 H 118.64984635764547 89.85443666639813 49.70696151264306 H 0.0 **** 0.06
6114 H 119.76746367926673 89.3309992280117 50.99093065470477 H 0.0 **** 0.06
6115 H 120.34654762923219 89.48636424709233 49.315037664975506 H 0.0 **** 0.06
6116 C 133.43785664502312 84.02708185274167 126.66357347830203 C 0.0 **** -0.24
6117 H 132.69497394165194 83.27452008258976 126.93114068931034 H 0.0 **** 0.06
6118 H 134.29365780530625 83.54192875561242 126.19525322305851 H 0.0 **** 0.06
6119 H 133.7630680977349 84.5505858690309 127.56249066418691 H 0.0 **** 0.06
6120 H 132.99709976651698 84.73986629439551 125.96765990096884 H 0.0 **** 0.06
6121 C 81.49218169229039 86.76670500994118 93.4376037261676 C 0.0 **** -0.24
6122 H 80.73264706479614 86.93852959008078 92.67555682461062 H 0.0 **** 0.06
6123 H 81.83549823862774 85.73306197099606 93.38040279723333 H 0.0 **** 0.06
6124 H 81.06595056960145 86.953307489721 94.42352797615985 H 0.0 **** 0.06
6125 H 82.33332503316402 87.4392464173394 93.27199588140559 H 0.0 **** 0.06
6126 C 0.49734478479321353 104.87183573607274 46.088606344745855 C 0.0 **** -0.24
6127 H 1.0921500324537483 104.79357502278356 46.99823814113232 H 0.0 **** 0.06
6128 H 0.33851672108799136 103.87693321627266 45.67143164514165 H 0.0 **** 0.06
6129 H 1.0248644821231139 105.48993606143839 45.36143094278676 H 0.0 **** 0.06
6130 H -0.4655926437199902 105.32652911220354 46.32172759073856 H 0.0 **** 0.06
6131 C 114.15475120039923 114.05937847009847 53.16380624870453 C 0.0 **** -0.24
6132 H 114.9573365985865 113.33003081720804 53.05638316067038 H 0.0 **** 0.06
6133 H 113.61374419833786 113.8696794707985 54.09141436795966 H 0.0 **** 0.06
6134 H 113.47034404919071 113.97286542051282 52.319920946909946 H 0.0 **** 0.06
6135 H 114.57685622305837 115.06427896694444 53.187710741182315 H 0.0 **** 0.06
6136 C 116.584585397691 117.96373076394596 89.85635338369312 C 0.0 **** -0.24
6137 H 116.45448015341759 119.04184373834042 89.95141184173656 H 0.0 **** 0.06
6138 H 115.67809790708677 117.45752062876278 90.18941768263761 H 0.0 **** 0.06
6139 H 117.42623102661057 117.64360630174988 90.4705699791869 H 0.0 **** 0.06
6140 H 116.77913578458086 117.71244934399999 88.8132422190588 H 0.0 **** 0.06
6141 C 26.83217426769818 93.79559310171571 118.0120782373142 C 0.0 **** -0.24
6142 H 26.53947279665354 94.7850138659409 117.65965591155509 H 0.0 **** 0.06
6143 H 27.752429316512206 93.87370091513438 118.590417969729 H 0.0 **** 0.06
6144 H 26.99405714266304 93.13902947503367 117.15704244094607 H 0.0 **** 0.06
6145 H 26.041296694015415 93.38581689867883 118.63996769231929 H 0.0 **** 0.06
6146 C 133.60358597249464 80.09965489551664 4.858287165434206 C 0.0 **** -0.24
6147 H 133.75764535579913 79.73701667466625 3.8421398951807646 H 0.0 **** 0.06
6148 H 134.0568182522711 81.08556369207318 4.965177026736285 H 0.0 **** 0.06
6149 H 134.06562671756143 79.40913854947003 5.564135312530254 H 0.0 **** 0.06
6150 H 132.5353157015621 80.16651301235308 5.062545945970612 H 0.0 **** 0.06
6151 C 57.24837581843008 11.58719679127455 28.400475384577533 C 0.0 **** -0.24
6152 H 56.9982824872001 11.164244454011225 29.3729360070013 H 0.0 **** 0.06
6153 H 56.913256381975145 12.623638316432846 28.359597590992706 H 0.0 **** 0.06
6154 H 56.75461857734899 11.013466824493435 27.616638832972512 H 0.0 **** 0.06
6155 H 58.32771135874833 11.548511730963867 28.25465596929655 H 0.0 **** 0.06
6156 C 100.89791119691337 100.04064971620274 54.56189257866447 C 0.0 **** -0.24
6157 H 100.68159540886133 100.91347414814598 55.17757434148393 H 0.0 **** 0.06
6158 H 101.9770490794062 99.89330539832511 54.506555426390605 H 0.0 **** 0.06
6159 H 100.49927776947622 100.19566215461488 53.55927121432131 H 0.0 **** 0.06
6160 H 100.43319559327892 99.16001591656153 55.00547412352523 H 0.0 **** 0.06
6161 C 54.649987062682996 24.00236907677055 47.27495283312584 C 0.0 **** -0.24
6162 H 53.728180414627886 24.028662739606773 46.69341157730253 H 0.0 **** 0.06
6163 H 55.400062312616555 23.4210187229381 46.739622184172674 H 0.0 **** 0.06
6164 H 54.45487697335268 23.541720965926686 48.24379723288516 H 0.0 **** 0.06
6165 H 55.014091210240295 25.018636544172665 47.42341708582569 H 0.0 **** 0.06
6166 C 108.49469967520115 60.685458056902576 41.827592129629195 C 0.0 **** -0.24
6167 H 108.50648150808193 59.69510912165528 41.37282381487151 H 0.0 **** 0.06
6168 H 108.01969851403271 61.392483933153926 41.14604428987258 H 0.0 **** 0.06
6169 H 109.51639826840591 61.00483053571537 42.02932263024226 H 0.0 **** 0.06
6170 H 107.93408078933072 60.64966874521518 42.7615823024895 H 0.0 **** 0.06
6171 C 53.38690419356915 2.8552384233212535 40.24014341159038 C 0.0 **** -0.24
6172 H 53.45878232197032 1.7951620325469548 40.48188833550722 H 0.0 **** 0.06
6173 H 52.35810015805983 3.0990282417309913 39.9771057821579 H 0.0 **** 0.06
6174 H 54.04206281117982 3.079957332778889 39.3974342433708 H 0.0 **** 0.06
6175 H 53.69208182164853 3.4462097993829843 41.1040245007444 H 0.0 **** 0.06
6176 C 127.78493384007871 33.82247028495684 53.97817358813606 C 0.0 **** -0.24
6177 H 128.00960488887975 33.53948266943697 52.94941655748731 H 0.0 **** 0.06
6178 H 127.45495395758184 34.86095651996324 54.00609633003906 H 0.0 **** 0.06
6179 H 128.68025104410782 33.70836516575971 54.58888969559146 H 0.0 **** 0.06
6180 H 126.9954195802775 33.17837743192565 54.36707943008574 H 0.0 **** 0.06
6181 C 52.78661569868987 73.30678383102355 63.33183322523682 C 0.0 **** -0.24
6182 H 52.4620601704531 72.3329269487611 63.69849321362253 H 0.0 **** 0.06
6183 H 52.10157965793006 73.64841749282738 62.55453198224674 H 0.0 **** 0.06
6184 H 53.79139104702328 73.2230050463368 62.91957529083946 H 0.0 **** 0.06
6185 H 52.78942117208368 74.02207671684101 64.15405841354995 H 0.0 **** 0.06
6186 C 51.65050663908946 16.68060735236722 57.39792545007215 C 0.0 **** -0.24
6187 H 51.421626651212264 15.933609149369943 56.63748299742221 H 0.0 **** 0.06
6188 H 51.742065759807005 17.66061361481337 56.928713606291254 H 0.0 **** 0.06
6189 H 52.588919275506484 16.42281990084834 57.889058246694916 H 0.0 **** 0.06
6190 H 50.8482852236003 16.704258461676474 58.13577537230309 H 0.0 **** 0.06
6191 C 58.044050220431245 93.75145584929184 31.329094106611116 C 0.0 **** -0.24
6192 H 58.798129304276614 93.19722696443236 30.769666567954744 H 0.0 **** 0.06
6193 H 58.19599968741889 94.82051895538217 31.179897916675742 H 0.0 **** 0.06
6194 H 58.13286776191404 93.51577760398958 32.389545079363046 H 0.0 **** 0.06
6195 H 57.05171369517157 93.471461463123 30.97585280496338 H 0.0 **** 0.06
6196 C 125.43448548540158 42.94829227366404 41.84284304786366 C 0.0 **** -0.24
6197 H 124.91544673481938 43.90417694216467 41.78464284434444 H 0.0 **** 0.06
6198 H 124.91867324295511 42.21650428425093 41.22016400800468 H 0.0 **** 0.06
6199 H 125.44460170407265 42.602169103713635 42.87661647460598 H 0.0 **** 0.06
6200 H 126.45857191973886 43.069016470282946 41.49088898361943 H 0.0 **** 0.06
6201 C 12.786714028595128 54.715544934031485 134.71628960467405 C 0.0 **** -0.24
6202 H 13.563625096636628 54.2527966218873 135.32358622183602 H 0.0 **** 0.06
6203 H 12.887957923472882 54.38424660757697 133.6827393346654 H 0.0 **** 0.06
6204 H 12.889029986856059 55.79990184269839 134.76210024553464 H 0.0 **** 0.06
6205 H 11.807307945658707 54.42616431232055 135.0967769578295 H 0.0 **** 0.06
6206 C 12.437979661101451 9.779397954759133 50.37137075689259 C 0.0 **** -0.24
6207 H 11.531376234787217 9.64231079506817 50.96067067629508 H 0.0 **** 0.06
6208 H 13.30285701185602 9.468067300904352 50.958043153822246 H 0.0 **** 0.06
6209 H 12.53986993470977 10.830928217271776 50.101705085860885 H 0.0 **** 0.06
6210 H 12.376407783945297 9.176174425390855 49.464985413639 H 0.0 **** 0.06
6211 C 107.01991578335543 110.10143967358078 86.15692009623962 C 0.0 **** -0.24
6212 H 107.81552688652346 110.55691106286562 85.56644834034068 H 0.0 **** 0.06
6213 H 107.37224587028282 109.93748444361268 87.17539752066705 H 0.0 **** 0.06
6214 H 106.73936176282024 109.14647283376499 85.71116691686865 H 0.0 **** 0.06
6215 H 106.15494215667056 110.76332215666994 86.17301955444819 H 0.0 **** 0.06
6216 C 34.02153396354686 41.571458705657136 23.070674013517518 C 0.0 **** -0.24
6217 H 34.66375640163733 42.42008564570426 23.304082822032086 H 0.0 **** 0.06
6218 H 33.228387107118124 41.50095939452075 23.8155216541561 H 0.0 **** 0.06
6219 H 34.61137973480896 40.65543394455224 23.079652797346355 H 0.0 **** 0.06
6220 H 33.58127929056758 41.710838615078984 22.083284460386295 H 0.0 **** 0.06
6221 C 119.75283335185543 97.83204251548449 121.91793880883233 C 0.0 **** -0.24
6222 H 120.18136811804514 97.97489618913204 120.92648997314967 H 0.0 **** 0.06
6223 H 119.37057989848007 96.81539758664513 122.00533109527089 H 0.0 **** 0.06
6224 H 118.93770997758705 98.54078112582894 122.06606900663706 H 0.0 **** 0.06
6225 H 120.52048949145104 97.99898344879199 122.67369726813257 H 0.0 **** 0.06
6226 C 92.31586285445982 24.342658303792305 5.745004429349759 C 0.0 **** -0.24
6227 H 92.97056365627805 25.1649254106189 5.457477568476381 H 0.0 **** 0.06
6228 H 92.11066418802136 24.39833174548054 6.81388562900921 H 0.0 **** 0.06
6229 H 92.80214833220325 23.394283584546685 5.517072694466464 H 0.0 **** 0.06
6230 H 91.37948821716341 24.4136463399445 5.190420477778364 H 0.0 **** 0.06
6231 C 123.73699966014567 72.53506426117858 39.61198471865408 C 0.0 **** -0.24
6232 H 123.79817697065427 71.61885708805154 40.199051837158194 H 0.0 **** 0.06
6233 H 123.09042163357537 73.24956072141177 40.120516608161466 H 0.0 **** 0.06
6234 H 123.3259727485763 72.30903900419861 38.627462205340095 H 0.0 **** 0.06
6235 H 124.73417535878028 72.96173163357481 39.50036179747781 H 0.0 **** 0.06
6236 C 40.00344465491439 129.10945165672123 129.9827176320562 C 0.0 **** -0.24
6237 H 39.5283481647833 130.03130388636305 129.64805238581124 H 0.0 **** 0.06
6238 H 40.650730407827034 128.7273401826936 129.19245874917203 H 0.0 **** 0.06
6239 H 39.23710904362729 128.3695421923142 130.21546817359592 H 0.0 **** 0.06
6240 H 40.59759100341993 129.30962036551398 130.87489121964538 H 0.0 **** 0.06
6241 C 11.228906841380848 129.52294130443755 129.53273201974238 C 0.0 **** -0.24
6242 H 10.29763557189274 129.9946070675736 129.22091919205963 H 0.0 **** 0.06
6243 H 11.05553890865066 128.4626059548704 129.71515884645137 H 0.0 **** 0.06
6244 H 11.586888962131454 129.996476146122 130.44768485061192 H 0.0 **** 0.06
6245 H 11.975945933321412 129.64027854487648 128.74710763591156 H 0.0 **** 0.06
6246 C 125.21395078672202 102.29021086052057 135.41434865959388 C 0.0 **** -0.24
6247 H 126.20329830194868 102.74817177526357 135.40374762822276 H 0.0 **** 0.06
6248 H 125.10678164047272 101.67657352385633 136.30868922377124 H 0.0 **** 0.06
6249 H 125.09220022333523 101.66685952342114 134.52832270739069 H 0.0 **** 0.06
6250 H 124.45328478658308 103.07128341018216 135.4157619659831 H 0.0 **** 0.06
6251 C 96.59030803308994 56.80096486446678 136.51471029922394 C 0.0 **** -0.24
6252 H 96.0181827381481 57.67129153791632 136.83749541531688 H 0.0 **** 0.06
6253 H 96.72159384821643 56.83386937219353 135.43342108616392 H 0.0 **** 0.06
6254 H 96.05364380170285 55.892758716696505 136.78931577044347 H 0.0 **** 0.06
6255 H 97.56574560137788 56.80716770997975 137.0006641208946 H 0.0 **** 0.06
6256 C 56.6764326392629 128.0004954215646 127.53070243017771 C 0.0 **** -0.24
6257 H 57.626973108327576 127.62125725313041 127.15724663547655 H 0.0 **** 0.06
6258 H 56.316811404036415 127.35572771501961 128.33251988272355 H 0.0 **** 0.06
6259 H 55.947377727362635 128.01552115734472 126.72136123929454 H 0.0 **** 0.06
6260 H 56.81514720666783 129.012367678116 127.9137558838645 H 0.0 **** 0.06
6261 C 20.83992318503757 32.5735472434186 114.12126907114336 C 0.0 **** -0.24
6262 H 20.16448633451118 32.086458236359505 113.4182502921403 H 0.0 **** 0.06
6263 H 21.871127534164593 32.3398525184068 113.85610414657484 H 0.0 **** 0.06
6264 H 20.633303106983547 32.214400109376356 115.13039821559309 H 0.0 **** 0.06
6265 H 20.689104297145278 33.652203151549685 114.08158099144472 H 0.0 **** 0.06
6266 C 78.67884403835416 23.188944345972175 95.54703914885445 C 0.0 **** -0.24
6267 H 78.6955066144748 24.213313213054988 95.92000948681252 H 0.0 **** 0.06
6268 H 78.49651943076975 23.197257351188142 94.47196997024156 H 0.0 **** 0.06
6269 H 77.88508540118059 22.63407979261345 96.04735167274873 H 0.0 **** 0.06
6270 H 79.63861929304932 22.713183210409397 95.74962958648862 H 0.0 **** 0.06
6271 C 108.04812996924124 134.79920736391924 58.67140126085046 C 0.0 **** -0.24
6272 H 108.26624288515967 133.8618554878032 59.18274582011824 H 0.0 **** 0.06
6273 H 108.83546811034802 135.52238874391577 58.886118392095426 H 0.0 **** 0.06
6274 H 107.09168619402283 135.1886626979055 59.01822231934467 H 0.0 **** 0.06
6275 H 108.00026530543715 134.62345322257718 57.59665453489106 H 0.0 **** 0.06
6276 C 78.58309824124967 26.495991333534505 97.92474388694785 C 0.0 **** -0.24
6277 H 77.81534276728041 25.73620972133108 97.77826692963468 H 0.0 **** 0.06
6278 H 79.45298808951202 26.045130332846384 98.4017303059155 H 0.0 **** 0.06
6279 H 78.19094290926438 27.289884574585642 98.56111863661852 H 0.0 **** 0.06
6280 H 78.87143276421801 26.912034896639454 96.96044003129893 H 0.0 **** 0.06
6281 C 126.87933644348601 64.68801272485786 52.49334894955055 C 0.0 **** -0.24
6282 H 127.55466438257622 64.19533149543253 53.1928383647943 H 0.0 **** 0.06
6283 H 125.96280732431575 64.9718415312885 53.01217524153867 H 0.0 **** 0.06
6284 H 126.63922559051053 64.0054961745879 51.678336077634896 H 0.0 **** 0.06
6285 H 127.36040973596852 65.58032411887731 52.09205983660625 H 0.0 **** 0.06
6286 C 43.007504131516384 106.41856894559135 73.57726501781865 C 0.0 **** -0.24
6287 H 42.6322259001704 106.44530339783654 72.55387036458741 H 0.0 **** 0.06
6288 H 42.40206117968643 107.07383094885097 74.2038395310251 H 0.0 **** 0.06
6289 H 44.04397047375818 106.75530801752944 73.59214353367508 H 0.0 **** 0.06
6290 H 42.95109323615043 105.39821946606469 73.95748843596616 H 0.0 **** 0.06
6291 C 88.89799157321384 49.23798420058583 6.558290518172953 C 0.0 **** -0.24
6292 H 88.81125773951447 48.590944238407175 7.431097819601575 H 0.0 **** 0.06
6293 H 88.05244956544713 49.062995647037894 5.891760803254897 H 0.0 **** 0.06
6294 H 89.82660717960907 49.01551174616753 6.0334857120677725 H 0.0 **** 0.06
6295 H 88.90089376691253 50.28021509186331 6.876295824659962 H 0.0 **** 0.06
6296 C 71.26358529049497 133.7587286059831 119.46801329619596 C 0.0 **** -0.24
6297 H 71.975768267121 134.18481648927178 120.17442222161846 H 0.0 **** 0.06
6298 H 71.2488988565083 132.6745708189926 119.57749041747512 H 0.0 **** 0.06
6299 H 71.56139099743265 134.0176787966593 118.45196722387522 H 0.0 **** 0.06
6300 H 70.26906736113705 134.15900659091892 119.66796513759508 H 0.0 **** 0.06
6301 C 11.931851680039852 9.490449233221 55.193304388627524 C 0.0 **** -0.24
6302 H 11.74554048006943 10.44853981218995 55.67672404028636 H 0.0 **** 0.06
6303 H 12.20836588527009 8.7513693132384 55.945249086626845 H 0.0 **** 0.06
6304 H 12.74338493737363 9.59811646820026 54.472490489615325 H 0.0 **** 0.06
6305 H 11.0290273946808 9.162687726590605 54.67684546525851 H 0.0 **** 0.06
6306 C 133.64248987396644 69.6991326355981 94.24714627186327 C 0.0 **** -0.24
6307 H 133.06407603807781 69.29286614027562 93.41648864033625 H 0.0 **** 0.06
6308 H 134.54552682166042 69.10456840181983 94.38464788993113 H 0.0 **** 0.06
6309 H 133.0432249131066 69.66737375860336 95.15619955315863 H 0.0 **** 0.06
6310 H 133.9164465985359 70.73162629767762 94.02832978901206 H 0.0 **** 0.06
6311 C 118.36170064415859 99.97389505473294 12.085334169919204 C 0.0 **** -0.24
6312 H 118.92885509463831 100.88172372314331 12.291130192840228 H 0.0 **** 0.06
6313 H 118.59827883053671 99.61896098745524 11.08255323455272 H 0.0 **** 0.06
6314 H 117.29546642398688 100.18918925250371 12.153474072275614 H 0.0 **** 0.06
6315 H 118.62549344083773 99.20853094150358 12.81477448023054 H 0.0 **** 0.06
6316 C 123.84411213852349 64.82659143132008 47.98329083827474 C 0.0 **** -0.24
6317 H 123.08880641300402 64.18111564321384 48.43176640832753 H 0.0 **** 0.06
6318 H 123.67018571489592 65.85822136925026 48.29078616628179 H 0.0 **** 0.06
6319 H 123.78265222983606 64.75631302171644 46.896388000853904 H 0.0 **** 0.06
6320 H 124.83395169610344 64.51034650336771 48.31218877285038 H 0.0 **** 0.06
6321 C 44.66091661296085 86.98118412924369 73.7024624874108 C 0.0 **** -0.24
6322 H 44.770366205329935 87.29577064278338 74.74031082542379 H 0.0 **** 0.06
6323 H 45.630817918825414 87.02368160393155 73.20616669171997 H 0.0 **** 0.06
6324 H 43.96249753007979 87.64636368777686 73.19379457723551 H 0.0 **** 0.06
6325 H 44.27963530084844 85.96030536754924 73.67129845227322 H 0.0 **** 0.06
6326 C 23.677682619426434 94.45634814099883 96.70628629280363 C 0.0 **** -0.24
6327 H 23.337542497193397 95.34577611897777 97.23721251830857 H 0.0 **** 0.06
6328 H 24.765645931437746 94.3972407903722 96.75643893442461 H 0.0 **** 0.06
6329 H 23.3645304521163 94.51450285509439 95.6635908257419 H 0.0 **** 0.06
6330 H 23.24334663250687 93.56982321231516 97.16686180054208 H 0.0 **** 0.06
6331 C 5.4092815675088275 31.250166459938413 97.39133602705124 C 0.0 **** -0.24
6332 H 5.112316585390403 32.27438855389363 97.61479725309283 H 0.0 **** 0.06
6333 H 6.421933021409927 31.078079966403436 97.75527600414841 H 0.0 **** 0.06
6334 H 5.378258259887332 31.09024140290748 96.31359923628514 H 0.0 **** 0.06
6335 H 4.723936051142772 30.55852812657122 97.88121662291451 H 0.0 **** 0.06
6336 C 34.452249351588904 124.77462950719456 65.60065194221966 C 0.0 **** -0.24
6337 H 35.38008212181765 124.29677435273217 65.28455399593821 H 0.0 **** 0.06
6338 H 33.99809253174985 125.2815518007429 64.74930276032444 H 0.0 **** 0.06
6339 H 34.66706622428731 125.50148638800795 66.3846531509318 H 0.0 **** 0.06
6340 H 33.767329905538986 124.01891445719778 65.98300792729407 H 0.0 **** 0.06
6341 C 121.76663365660536 17.522917728241026 123.78794546586803 C 0.0 **** -0.24
6342 H 121.01479526160288 16.836542581494996 124.17758279928536 H 0.0 **** 0.06
6343 H 122.27071203058958 18.018132379231673 124.61871593326875 H 0.0 **** 0.06
6344 H 121.28450129999072 18.270042537007356 123.15812887650753 H 0.0 **** 0.06
6345 H 122.49627033702622 16.96636697239211 123.1997187801161 H 0.0 **** 0.06
6346 C 8.249797522297683 90.89657152653143 47.4592779241561 C 0.0 **** -0.24
6347 H 7.619122714865682 90.61895949496704 46.614196892674215 H 0.0 **** 0.06
6348 H 8.976123900479422 90.10524831950306 47.645328046501334 H 0.0 **** 0.06
6349 H 7.629573053575825 91.03749351238406 48.34419975233027 H 0.0 **** 0.06
6350 H 8.773525824707917 91.82504177642707 47.230726519691345 H 0.0 **** 0.06
6351 C 10.794967133847024 114.19083900187493 24.9107281471141 C 0.0 **** -0.24
6352 H 11.195340887267378 115.19792819921605 24.794073659082272 H 0.0 **** 0.06
6353 H 9.975870043601049 114.04160437700907 24.206510075615057 H 0.0 **** 0.06
6354 H 10.42839175327407 114.06169493182267 25.92923655447558 H 0.0 **** 0.06
6355 H 11.581839409831616 113.46320931135011 24.712495688521017 H 0.0 **** 0.06
6356 C 0.5934052539283243 97.15162580477107 54.32502319816649 C 0.0 **** -0.24
6357 H 0.8656507409559424 98.05944296944043 53.7862732834119 H 0.0 **** 0.06
6358 H 1.4073984968110835 96.86705556322431 54.99165640589672 H 0.0 **** 0.06
6359 H 0.4085147812889147 96.34779375543536 53.611640646941055 H 0.0 **** 0.06
6360 H -0.3091576538923846 97.33392523706715 54.90926306895608 H 0.0 **** 0.06
6361 C 22.213014710400422 44.850644508700185 54.517729241114296 C 0.0 **** -0.24
6362 H 21.441908346362133 45.12163691152347 55.23937956371191 H 0.0 **** 0.06
6363 H 22.250788490557397 45.60248522291758 53.72933799892536 H 0.0 **** 0.06
6364 H 21.978026071919643 43.8793469441479 54.08314160318463 H 0.0 **** 0.06
6365 H 23.178793293804283 44.80053086996111 55.01977443350398 H 0.0 **** 0.06
6366 C 105.4862648911787 51.049760704542166 76.23739435644646 C 0.0 **** -0.24
6367 H 106.17611977958097 51.47728722801364 76.9658917319133 H 0.0 **** 0.06
6368 H 104.46827539222325 51.114236264136224 76.62171108351384 H 0.0 **** 0.06
6369 H 105.74444082787264 50.0056129774006 76.06137799014544 H 0.0 **** 0.06
6370 H 105.55736928646388 51.60463913826146 75.30106523551169 H 0.0 **** 0.06
6371 C 72.65669605236148 105.75576469601268 82.68772910762553 C 0.0 **** -0.24
6372 H 71.65845413678738 106.01429172543028 82.33567815108967 H 0.0 **** 0.06
6373 H 73.27975271351366 106.65035509649263 82.70352479720736 H 0.0 **** 0.06
6374 H 73.09788281978715 105.01664126688925 82.01817783422422 H 0.0 **** 0.06
6375 H 72.59106807026478 105.34084689031722 83.69345135399982 H 0.0 **** 0.06
6376 C 71.1313018507794 36.00204563529343 43.04339360524426 C 0.0 **** -0.24
6377 H 71.54607506969361 35.668406064396436 42.091708300274874 H 0.0 **** 0.06
6378 H 71.04152259182425 35.14978459188424 43.71694528062332 H 0.0 **** 0.06
6379 H 70.14811660213867 36.440083593541175 42.87719647697722 H 0.0 **** 0.06
6380 H 71.79189134968478 36.74781728166559 43.48635439143257 H 0.0 **** 0.06
6381 C 113.0996145401767 123.30376227951106 115.20189851799876 C 0.0 **** -0.24
6382 H 113.49438417092381 123.47050929179116 114.1996927344367 H 0.0 **** 0.06
6383 H 112.67064135183395 122.30322735983123 115.26116033619303 H 0.0 **** 0.06
6384 H 112.3271521747948 124.04256721794312 115.41598548862228 H 0.0 **** 0.06
6385 H 113.90514853421305 123.39815879573786 115.93014321971842 H 0.0 **** 0.06
6386 C 6.521654105562845 30.54515846160958 126.59165506698906 C 0.0 **** -0.24
6387 H 6.673219300362291 30.159030894836263 127.59920135112276 H 0.0 **** 0.06
6388 H 6.643503432987075 29.73621929907405 125.87065279264937 H 0.0 **** 0.06
6389 H 7.254055639104251 31.32663255842118 126.38853366480907 H 0.0 **** 0.06
6390 H 5.516541931173663 30.959392737664658 126.50853723945943 H 0.0 **** 0.06
6391 C 102.17240729175256 77.86643367701424 91.67401155601533 C 0.0 **** -0.24
6392 H 103.0705101356765 77.92123410863263 91.0593765242742 H 0.0 **** 0.06
6393 H 101.99041898070243 76.8291634698158 91.95970186501484 H 0.0 **** 0.06
6394 H 101.32037367037952 78.24197272873221 91.10718777496378 H 0.0 **** 0.06
6395 H 102.30759321022168 78.47184002244398 92.57015271399374 H 0.0 **** 0.06
6396 C 65.94755931617317 125.95408343925743 28.857728992845097 C 0.0 **** -0.24
6397 H 66.76736793315604 126.66786905242634 28.779876759512867 H 0.0 **** 0.06
6398 H 65.22447595661822 126.31001657575837 29.591289554975027 H 0.0 **** 0.06
6399 H 66.33759854580677 124.9860652142176 29.172406895259343 H 0.0 **** 0.06
6400 H 65.46127498295539 125.8515442584864 27.88759996682446 H 0.0 **** 0.06
6401 C 1.8079090614006041 40.881667988667616 56.6827517568241 C 0.0 **** -0.24
6402 H 0.7432488276674043 40.933014724255194 56.911773991232906 H 0.0 **** 0.06
6403 H 1.941085727659999 40.65642952015722 55.62432098466533 H 0.0 **** 0.06
6404 H 2.27198206422495 40.09898826746809 57.28332547323042 H 0.0 **** 0.06
6405 H 2.2745902116471584 41.83970386452361 56.91215540384748 H 0.0 **** 0.06
6406 C 127.33087345448106 120.47421545952005 118.02651987138628 C 0.0 **** -0.24
6407 H 127.4014809490687 119.92145917981556 118.96343243366424 H 0.0 **** 0.06
6408 H 127.80909742725133 121.44712574765634 118.14312390030125 H 0.0 **** 0.06
6409 H 126.28275476141906 120.61258046087556 117.76454217890128 H 0.0 **** 0.06
6410 H 127.8328725453926 119.91544541672194 117.23658821658955 H 0.0 **** 0.06
6411 C 8.68989063512555 119.1573444905041 126.64094134749881 C 0.0 **** -0.24
6412 H 8.9948428820623 119.03098948843757 125.60185298334902 H 0.0 **** 0.06
6413 H 7.602362778444444 119.12299363265933 126.70716256525789 H 0.0 **** 0.06
6414 H 9.046158232629466 120.12014899266063 127.00899163028359 H 0.0 **** 0.06
6415 H 9.117865958049663 118.35739226982099 127.24448802738544 H 0.0 **** 0.06
6416 C 16.786764343303844 56.47783332093525 122.89627932395587 C 0.0 **** -0.24
6417 H 16.525325577289124 57.52885058017756 123.02036625858881 H 0.0 **** 0.06
6418 H 15.961054315987923 55.95279273418873 122.41554195623911 H 0.0 **** 0.06
6419 H 16.981092358144622 56.03370311625105 123.87241765154931 H 0.0 **** 0.06
6420 H 17.68011681913194 56.397150371707085 122.27618842435555 H 0.0 **** 0.06
6421 C 58.63583200975803 6.27082521227905 94.82090924341519 C 0.0 **** -0.24
6422 H 59.492365374644336 5.942815654455956 95.41007933655352 H 0.0 **** 0.06
6423 H 58.984849032926164 6.723092550084942 93.89266443214066 H 0.0 **** 0.06
6424 H 58.06352854575461 7.004672197438168 95.3893214689146 H 0.0 **** 0.06
6425 H 58.00196835230166 5.413932781517985 94.59303804797047 H 0.0 **** 0.06
6426 C 118.82091416075713 28.178320729984513 85.86840919605163 C 0.0 **** -0.24
6427 H 119.2422950701858 29.173642416100293 86.00743763502328 H 0.0 **** 0.06
6428 H 118.79124946091096 27.658944050466943 86.82741912068246 H 0.0 **** 0.06
6429 H 119.44094473025972 27.616741165770257 85.16995481190827 H 0.0 **** 0.06
6430 H 117.80995954845912 28.264089328602545 85.4699890883569 H 0.0 **** 0.06
6431 C 127.94510885344685 5.168609892449297 14.391180967442722 C 0.0 **** -0.24
6432 H 127.42775230455563 4.997366193037237 13.447990218689824 H 0.0 **** 0.06
6433 H 127.87692588472902 4.273166419239715 15.010116503632048 H 0.0 **** 0.06
6434 H 127.48313026359992 6.007048695110257 14.911926773334642 H 0.0 **** 0.06
6435 H 128.9934002344748 5.394964010945841 14.196037273313266 H 0.0 **** 0.06
6436 C 41.297536193396866 8.497100262956923 79.93029132228745 C 0.0 **** -0.24
6437 H 41.339265326313466 9.101949782180991 80.83511490531959 H 0.0 **** 0.06
6438 H 40.27100024632915 8.46030174021642 79.56484514736269 H 0.0 **** 0.06
6439 H 41.64025384787061 7.486201650175765 80.15270692431022 H 0.0 **** 0.06
6440 H 41.93876776241959 8.938481584528674 79.16815970163555 H 0.0 **** 0.06
6441 C 102.36124713873079 53.43665620690457 24.853904391010758 C 0.0 **** -0.24
6442 H 102.89713095181594 54.18315567525582 24.2673311535129 H 0.0 **** 0.06
6443 H 102.21492383675036 52.539393162872415 24.250867346021558 H 0.0 **** 0.06
6444 H 101.3922095612105 53.83665353965779 25.153092274299603 H 0.0 **** 0.06
6445 H 102.94231201749528 53.1875689451595 25.741595882936345 H 0.0 **** 0.06
6446 C 0.3662047205016563 106.13037673055318 132.24451178035093 C 0.0 **** -0.24
6447 H 0.7029494928232225 105.83628718310477 133.23832581362666 H 0.0 **** 0.06
6448 H 1.1865598368531494 106.61018130639708 131.71002029325524 H 0.0 **** 0.06
6449 H -0.4666266587060477 106.82915022019053 132.3352402738376 H 0.0 **** 0.06
6450 H 0.041053555154405785 105.24816347776927 131.69467137002755 H 0.0 **** 0.06
6451 C 94.24359265875341 119.44930056322872 83.2472151398863 C 0.0 **** -0.24
6452 H 93.72524340930795 120.08443120067197 83.96523405944492 H 0.0 **** 0.06
6453 H 93.51673960584995 118.84054087766366 82.70998118734829 H 0.0 **** 0.06
6454 H 94.94318755121824 118.80112435338816 83.77428023550141 H 0.0 **** 0.06
6455 H 94.78962992034883 120.07327625610088 82.53831402164431 H 0.0 **** 0.06
6456 C 30.149584672045307 49.234654043497414 86.79642254297792 C 0.0 **** -0.24
6457 H 29.86186578074279 50.16332264391107 87.28873292037474 H 0.0 **** 0.06
6458 H 31.215058719541673 49.05934510331949 86.94630885597441 H 0.0 **** 0.06
6459 H 29.938486939097743 49.309730587288584 85.7294425306468 H 0.0 **** 0.06
6460 H 29.580756473729025 48.407298066770124 87.22155389171822 H 0.0 **** 0.06
6461 C 43.94427398143591 29.066108392170293 87.90011012830158 C 0.0 **** -0.24
6462 H 43.6109897271441 28.823010970034716 86.89114317390948 H 0.0 **** 0.06
6463 H 43.57921843916523 28.309923497482913 88.59487836533957 H 0.0 **** 0.06
6464 H 43.55328931901329 30.04165263241123 88.18731291683316 H 0.0 **** 0.06
6465 H 45.03389985789494 29.08906689443549 87.92655700545312 H 0.0 **** 0.06
6466 C 39.018055866050304 77.3931130748959 34.72224977711332 C 0.0 **** -0.24
6467 H 38.46358978210034 78.21413011366131 34.26803569521181 H 0.0 **** 0.06
6468 H 38.8898043515174 76.49229589910645 34.120954433430214 H 0.0 **** 0.06
6469 H 38.642521815631625 77.21503141726053 35.72908148371144 H 0.0 **** 0.06
6470 H 40.075958983325364 77.65164082115386 34.76859050009716 H 0.0 **** 0.06
6471 C 5.88025818468547 0.33890173311741023 15.740762037129741 C 0.0 **** -0.24
6472 H 5.645588645962178 1.051937980370326 16.531676459060236 H 0.0 **** 0.06
6473 H 5.654659700738044 -0.6712800834615109 16.083934196436815 H 0.0 **** 0.06
6474 H 6.938365303647572 0.4102147729937542 15.490730449522516 H 0.0 **** 0.06
6475 H 5.281549519934035 0.5659655257066163 14.858637877477776 H 0.0 **** 0.06
6476 C 10.337140109331472 57.67338302217877 74.22742327084448 C 0.0 **** -0.24
6477 H 10.882228112634635 56.88028704782698 74.73950814426502 H 0.0 **** 0.06
6478 H 10.140091758401923 58.48779463499426 74.92465905604443 H 0.0 **** 0.06
6479 H 9.39272059910067 57.27908176014421 73.8514440215857 H 0.0 **** 0.06
6480 H 10.933747363161757 58.0447970989195 73.3933900011846 H 0.0 **** 0.06
6481 C 121.24108456528512 117.29467031154033 1.569007090033665 C 0.0 **** -0.24
6482 H 120.40265407366326 117.99161352865866 1.5624837366044346 H 0.0 **** 0.06
6483 H 121.46015381870232 116.98137378334025 0.5483803234733386 H 0.0 **** 0.06
6484 H 120.98432958865068 116.42340530215634 2.17073890829991 H 0.0 **** 0.06
6485 H 122.11722612655822 117.78525753223914 1.9948559798225745 H 0.0 **** 0.06
6486 C 78.96959408722654 84.52864403399909 121.70479427394123 C 0.0 **** -0.24
6487 H 79.3886211804932 85.41286521023454 122.18498721896542 H 0.0 **** 0.06
6488 H 78.62862457693717 84.78802842050447 120.70122678006057 H 0.0 **** 0.06
6489 H 78.12843752137678 84.15986568562533 122.29095993173277 H 0.0 **** 0.06
6490 H 79.73451309952827 83.7544291614735 121.63879175111242 H 0.0 **** 0.06
6491 C 101.67557766220193 7.812503528948497 93.4788483668968 C 0.0 **** -0.24
6492 H 100.63429548758245 7.593184652369217 93.2432773288849 H 0.0 **** 0.06
6493 H 101.72370190959191 8.685496198539255 94.13138879983596 H 0.0 **** 0.06
6494 H 102.22161718799015 8.017150118229694 92.55781108043573 H 0.0 **** 0.06
6495 H 102.12156668087573 6.955720934438347 93.98408242095434 H 0.0 **** 0.06
6496 C 132.20492525673228 20.849955498251376 78.12547120706951 C 0.0 **** -0.24
6497 H 132.65480574011917 20.573837407933723 79.07827409168003 H 0.0 **** 0.06
6498 H 132.2564053216825 20.00409079956941 77.43993508399774 H 0.0 **** 0.06
6499 H 132.74522783894156 21.69540329094889 77.6999031183884 H 0.0 **** 0.06
6500 H 131.16309314593957 21.127641515695785 78.28296836464052 H 0.0 **** 0.06
6501 C 128.12190299118194 59.25016712527491 80.4406647920323 C 0.0 **** -0.24
6502 H 127.03362864402469 59.21998046114635 80.48761947833395 H 0.0 **** 0.06
6503 H 128.53069357961112 59.21188622646707 81.45060385469151 H 0.0 **** 0.06
6504 H 128.43844202780667 60.17419824098454 79.95614272927014 H 0.0 **** 0.06
6505 H 128.48457721711472 58.396963254498246 79.86769393075332 H 0.0 **** 0.06
6506 C 127.58889763545534 123.72601585634163 77.57814128652785 C 0.0 **** -0.24
6507 H 128.57821527219568 123.27012239860687 77.530814081791 H 0.0 **** 0.06
6508 H 127.28520879839397 123.82432750198711 78.6211973990122 H 0.0 **** 0.06
6509 H 126.87363965736648 123.09809844562824 77.0483925365923 H 0.0 **** 0.06
6510 H 127.62146171961763 124.7117678518992 77.11446830946528 H 0.0 **** 0.06
6511 C 113.35291240280696 104.64818920361496 127.24394652456022 C 0.0 **** -0.24
6512 H 113.70440664580428 105.66499171318111 127.06510420127961 H 0.0 **** 0.06
6513 H 113.43499755068217 104.06907931547941 126.32441250844175 H 0.0 **** 0.06
6514 H 112.31233162604434 104.67528385188358 127.56602966724614 H 0.0 **** 0.06
6515 H 113.96221947817003 104.18577316987164 128.02048780574813 H 0.0 **** 0.06
6516 C 7.204447634555578 34.715723342128996 132.61671242127795 C 0.0 **** -0.24
6517 H 6.679675711971242 34.206625809106725 133.42464568387942 H 0.0 **** 0.06
6518 H 7.661987914598029 35.62893366347221 133.00065640649814 H 0.0 **** 0.06
6519 H 6.498449762388475 34.967604784665895 131.82643922372745 H 0.0 **** 0.06
6520 H 7.979245183673868 34.06115853761604 132.21722932021305 H 0.0 **** 0.06
6521 C 115.36288724764745 26.673614708623063 90.42632579465476 C 0.0 **** -0.24
6522 H 114.48407998923227 26.037176853958755 90.32757015952433 H 0.0 **** 0.06
6523 H 115.30838770759661 27.222980248862882 91.36628077963178 H 0.0 **** 0.06
6524 H 115.3958157830287 27.37829155965224 89.59526904652841 H 0.0 **** 0.06
6525 H 116.26112237733398 26.057158949768848 90.4164791101455 H 0.0 **** 0.06
6526 C 37.840312843373425 64.60314053846128 130.40041495133875 C 0.0 **** -0.24
6527 H 38.70465575730927 65.16726268521222 130.0483785245241 H 0.0 **** 0.06
6528 H 37.31733595703671 65.18010043237291 131.16364791482204 H 0.0 **** 0.06
6529 H 38.174093737165215 63.656349259295325 130.82497195466826 H 0.0 **** 0.06
6530 H 37.16771403120757 64.41117493993929 129.56434311481618 H 0.0 **** 0.06
6531 C 100.53035784631356 66.16189178950867 57.362587696187404 C 0.0 **** -0.24
6532 H 101.56790849561474 66.37737446940477 57.61844105394033 H 0.0 **** 0.06
6533 H 99.90722730463028 66.2718095977142 58.25103327120635 H 0.0 **** 0.06
6534 H 100.45395110353411 65.14050920352767 56.98906834386639 H 0.0 **** 0.06
6535 H 100.19468781121759 66.85695563124739 56.593968236379 H 0.0 **** 0.06
6536 C 8.25600531355812 79.34905327039624 5.4984745448751084 C 0.0 **** -0.24
6537 H 9.168284993628077 79.39175289417362 4.90130563313889 H 0.0 **** 0.06
6538 H 7.482478704605256 79.95176391522112 5.022832333229388 H 0.0 **** 0.06
6539 H 8.457941018087809 79.73660719718075 6.497176201944114 H 0.0 **** 0.06
6540 H 7.918643168687112 78.31552735160514 5.570965788907728 H 0.0 **** 0.06
6541 C 100.85315798868737 74.35696914081538 137.03911635582256 C 0.0 **** -0.24
6542 H 100.79051647666392 74.87268524773451 137.9976871824537 H 0.0 **** 0.06
6543 H 99.9679520066118 73.7358219919003 136.90311767355254 H 0.0 **** 0.06
6544 H 101.74436886871081 73.7286906824961 137.02270106901514 H 0.0 **** 0.06
6545 H 100.90984559571388 75.09077220305414 136.23519307782158 H 0.0 **** 0.06
6546 C 63.79115869602697 29.97861300186281 130.7021612762834 C 0.0 **** -0.24
6547 H 64.54740322011054 29.2152003249343 130.51844033890745 H 0.0 **** 0.06
6548 H 62.87761573046737 29.50509883582231 131.06182729920397 H 0.0 **** 0.06
6549 H 63.58347127685357 30.513830863369606 129.7751942468782 H 0.0 **** 0.06
6550 H 64.15811881034807 30.67951389808161 131.4525127334452 H 0.0 **** 0.06
6551 C 109.80675511254611 97.33714187344427 43.768023286743414 C 0.0 **** -0.24
6552 H 109.32776209113766 96.35966376216757 43.7250555510706 H 0.0 **** 0.06
6553 H 110.42699238993035 97.47812120681151 42.88216908599463 H 0.0 **** 0.06
6554 H 110.42970671588589 97.39677771047785 44.66039312127225 H 0.0 **** 0.06
6555 H 109.044244758191 98.11545646809975 43.80470343701998 H 0.0 **** 0.06
6556 C 81.19626795448562 99.29728846716033 128.01862297245725 C 0.0 **** -0.24
6557 H 80.92892499296784 98.26488331622154 128.24752575199224 H 0.0 **** 0.06
6558 H 80.91266883182095 99.93931213302177 128.85322602907866 H 0.0 **** 0.06
6559 H 80.67191994725124 99.61720515591388 127.11816001248724 H 0.0 **** 0.06
6560 H 82.27258911474229 99.365407826641 127.85677850931967 H 0.0 **** 0.06
6561 C 131.81510374087114 82.92505918718922 119.90935443267834 C 0.0 **** -0.24
6562 H 131.09327456672625 82.98954639972726 119.09454147770126 H 0.0 **** 0.06
6563 H 131.95103626529286 81.88170742118312 120.19182468771626 H 0.0 **** 0.06
6564 H 131.44453004385772 83.48797736471491 120.7659414480799 H 0.0 **** 0.06
6565 H 132.7677718973826 83.3424370174346 119.58440650087033 H 0.0 **** 0.06
6566 C 23.68658899555038 94.32683255874102 82.65493335648155 C 0.0 **** -0.24
6567 H 23.40079125434505 93.57766746727495 83.39410074893432 H 0.0 **** 0.06
6568 H 23.648220550069325 95.31712767799242 83.10831452380945 H 0.0 **** 0.06
6569 H 22.996796076947817 94.28674219294935 81.81216498125072 H 0.0 **** 0.06
6570 H 24.699609267213134 94.1250564777217 82.30640872658233 H 0.0 **** 0.06
6571 C 24.380898897799398 112.7881031959003 15.932519435349612 C 0.0 **** -0.24
6572 H 25.2987874374019 112.35613050964182 15.53256902048345 H 0.0 **** 0.06
6573 H 24.334894334293438 112.61143069299479 17.00736011764733 H 0.0 **** 0.06
6574 H 23.521157645187117 112.32517016728522 15.449547399367923 H 0.0 **** 0.06
6575 H 24.37274160432156 113.86060378324382 15.740085093503154 H 0.0 **** 0.06
6576 C 123.4054801589798 116.37198367458566 56.84845674153726 C 0.0 **** -0.24
6577 H 123.96157793821234 115.86314227663576 57.635333299921285 H 0.0 **** 0.06
6578 H 122.95371662011803 117.27793648550437 57.252104181614754 H 0.0 **** 0.06
6579 H 122.62396130460141 115.71200687627595 56.472244092430856 H 0.0 **** 0.06
6580 H 124.0832229934627 116.63320275449672 56.035871180816685 H 0.0 **** 0.06
6581 C 56.75791809066274 127.96921776585566 113.50361354602202 C 0.0 **** -0.24
6582 H 55.900278611111986 127.56464984568942 114.04124575363196 H 0.0 **** 0.06
6583 H 56.60643581997485 129.03437021517783 113.32690906987591 H 0.0 **** 0.06
6584 H 56.865571354345505 127.45247010827228 112.55029792997755 H 0.0 **** 0.06
6585 H 57.6607560349556 127.82426239669735 114.09842505717796 H 0.0 **** 0.06
6586 C 65.64373108808235 114.97388620545635 25.44445168084483 C 0.0 **** -0.24
6587 H 64.56363417563102 115.11581807165061 25.472930480238844 H 0.0 **** 0.06
6588 H 65.92746848060807 114.20181859539048 26.161109099917297 H 0.0 **** 0.06
6589 H 66.1407080828601 115.9091921380982 25.701878832754907 H 0.0 **** 0.06
6590 H 65.94366080244237 114.66741435931036 24.441808531179298 H 0.0 **** 0.06
6591 C 97.56094512729548 68.01598289343163 10.070841699785191 C 0.0 **** -0.24
6592 H 97.12470621875696 67.03778327603264 9.866375991284315 H 0.0 **** 0.06
6593 H 97.81454762025884 68.50415883889765 9.129390626480046 H 0.0 **** 0.06
6594 H 98.46285098116813 67.8932328765469 10.670037243619248 H 0.0 **** 0.06
6595 H 96.8426132224166 68.62815706849906 10.615623389849617 H 0.0 **** 0.06
6596 C 30.16604933949378 10.651687453814645 61.10310486389153 C 0.0 **** -0.24
6597 H 31.005065892688265 10.02270586604375 61.40013589470868 H 0.0 **** 0.06
6598 H 29.77961700432509 10.311755610091765 60.14224199355107 H 0.0 **** 0.06
6599 H 30.50218485285467 11.685527373690633 61.015537390329314 H 0.0 **** 0.06
6600 H 29.379826119822837 10.587854655696148 61.85575784678133 H 0.0 **** 0.06
6601 C 70.59319479689134 117.23312083009688 132.16783328719072 C 0.0 **** -0.24
6602 H 69.69678686119713 117.16672473267423 131.55157975544984 H 0.0 **** 0.06
6603 H 70.32350170179478 117.10081442186458 133.21581264246186 H 0.0 **** 0.06
6604 H 71.0557359528031 118.21106720220305 132.03153702463217 H 0.0 **** 0.06
6605 H 71.29549797357137 116.45451674939619 131.87229659768573 H 0.0 **** 0.06
6606 C 11.667250556939578 29.10088182801624 57.79921223731682 C 0.0 **** -0.24
6607 H 11.308137212558233 30.090911632531245 57.51888450859391 H 0.0 **** 0.06
6608 H 12.657838881754671 28.93907195075127 57.3743070819085 H 0.0 **** 0.06
6609 H 10.980362782335373 28.34523011713958 57.417673572951955 H 0.0 **** 0.06
6610 H 11.720497635510391 29.028017758851064 58.88551221524685 H 0.0 **** 0.06
6611 C 54.87390919111155 75.63391602687872 134.54475876069625 C 0.0 **** -0.24
6612 H 55.549390667250975 75.1630135932335 135.25932139574235 H 0.0 **** 0.06
6613 H 54.08596508719231 76.16125271840815 135.08321321599442 H 0.0 **** 0.06
6614 H 54.429906436764654 74.87026279783294 133.90706815505274 H 0.0 **** 0.06
6615 H 55.43048556179551 76.34154757199457 133.9307804439992 H 0.0 **** 0.06
6616 C 25.090511071653623 111.72363076455562 122.73297878243108 C 0.0 **** -0.24
6617 H 24.841491447329048 111.72376189979957 123.79411603447443 H 0.0 **** 0.06
6618 H 25.946830075144078 112.37565567857436 122.56069605695347 H 0.0 **** 0.06
6619 H 24.23667290023036 112.08464983577053 122.15960135817528 H 0.0 **** 0.06
6620 H 25.337328115299783 110.70921981331549 122.41868296650904 H 0.0 **** 0.06
6621 C 52.377045210644525 72.65954190888641 16.835158631897144 C 0.0 **** -0.24
6622 H 51.38426902556928 72.22735623519964 16.703727570174124 H 0.0 **** 0.06
6623 H 53.08397602637456 72.15016544577111 16.180697421321256 H 0.0 **** 0.06
6624 H 52.689585179295165 72.53930391227934 17.872624135513462 H 0.0 **** 0.06
6625 H 52.3473453154387 73.71962953314096 16.585012340590993 H 0.0 **** 0.06
6626 C 39.473263279586234 128.90809061938202 35.984184158502046 C 0.0 **** -0.24
6627 H 39.061420440787614 129.5746876367714 36.742220421984825 H 0.0 **** 0.06
6628 H 39.89518929643259 129.49962046770708 35.17091544901814 H 0.0 **** 0.06
6629 H 38.682242146844615 128.2671905663979 35.595430087053614 H 0.0 **** 0.06
6630 H 40.25438065525381 128.29176009550943 36.42857628752023 H 0.0 **** 0.06
6631 C 18.452321698999867 38.86767834155677 38.13508742438281 C 0.0 **** -0.24
6632 H 17.986928564125208 39.8507458225269 38.19373504351787 H 0.0 **** 0.06
6633 H 18.88021414583858 38.60927826276392 39.10447980300722 H 0.0 **** 0.06
6634 H 19.23971560286816 38.88319801943247 37.38166388403315 H 0.0 **** 0.06
6635 H 17.701695263004297 38.1268412828494 37.860670872669715 H 0.0 **** 0.06
6636 C 105.05502990803234 118.43086355618553 19.0009865934569 C 0.0 **** -0.24
6637 H 105.34537409134141 117.39779623687008 18.81359352197549 H 0.0 **** 0.06
6638 H 105.030632400495 118.61187487521892 20.076158572217196 H 0.0 **** 0.06
6639 H 104.06761864163433 118.61381971401264 18.57853891365761 H 0.0 **** 0.06
6640 H 105.77811931225197 119.10110325119419 18.53590214994736 H 0.0 **** 0.06
6641 C 59.85138230260864 131.30329857346 69.06582603282095 C 0.0 **** -0.24
6642 H 60.517468530904495 132.15826954576343 68.94494225207632 H 0.0 **** 0.06
6643 H 59.11918722398437 131.52032434959105 69.84368093500882 H 0.0 **** 0.06
6644 H 60.43386459560264 130.42595937891954 69.34735469139099 H 0.0 **** 0.06
6645 H 59.336045770255 131.10990081835203 68.12480868629564 H 0.0 **** 0.06
6646 C 70.83810330506617 72.12134457963933 19.525993938239793 C 0.0 **** -0.24
6647 H 70.05647992302886 72.7439652877572 19.96051594207617 H 0.0 **** 0.06
6648 H 70.44955303050722 71.1178914263097 19.35323254764087 H 0.0 **** 0.06
6649 H 71.68455376612224 72.0697059520824 20.21230307162392 H 0.0 **** 0.06
6650 H 71.16326384117849 72.55426543382403 18.580518833380808 H 0.0 **** 0.06
6651 C 120.48622359340536 77.23897009319707 105.5397500979588 C 0.0 **** -0.24
6652 H 120.41917463315397 78.24108007318176 105.96301369917626 H 0.0 **** 0.06
6653 H 119.58597416871032 76.67716054784376 105.79194475115003 H 0.0 **** 0.06
6654 H 121.35896355353378 76.72978189866187 105.94907078446363 H 0.0 **** 0.06
6655 H 120.58060147576143 77.30717395897294 104.4556780796629 H 0.0 **** 0.06
6656 C 136.37120089150096 1.868504121278761 66.81651182018169 C 0.0 **** -0.24
6657 H 135.57235068837866 2.2788843131797307 67.434251665366 H 0.0 **** 0.06
6658 H 136.1768600284216 2.102674241211446 65.76960778000579 H 0.0 **** 0.06
6659 H 136.411014516248 0.787417107918202 66.94616428741348 H 0.0 **** 0.06
6660 H 137.32337409015136 2.306148686981089 67.11754757811573 H 0.0 **** 0.06
6661 C 80.77463073479338 112.11606540217824 134.65572223199206 C 0.0 **** -0.24
6662 H 81.04785422948102 111.58832795019023 133.74221188994906 H 0.0 **** 0.06
6663 H 81.38693321108475 111.75227339018957 135.48097438772896 H 0.0 **** 0.06
6664 H 79.72204266791849 111.93744341806385 134.87778001499095 H 0.0 **** 0.06
6665 H 80.94136103629852 113.18485162961127 134.5220844306319 H 0.0 **** 0.06
6666 C 11.896062850899114 100.2966428977883 67.4877932748147 C 0.0 **** -0.24
6667 H 12.605262164189128 100.6401671081295 66.73570787847389 H 0.0 **** 0.06
6668 H 12.376143925586689 99.55705644434906 68.12845940702881 H 0.0 **** 0.06
6669 H 11.033640874393768 99.84719971635195 66.99500300845867 H 0.0 **** 0.06
6670 H 11.569424234026087 101.14373260666913 68.09133807040125 H 0.0 **** 0.06
6671 C 26.78305667798554 101.03718727272205 32.97111461301202 C 0.0 **** -0.24
6672 H 26.751464786514703 102.06173060161912 33.34193665361124 H 0.0 **** 0.06
6673 H 26.14882565985556 100.4061408547966 33.59313668853244 H 0.0 **** 0.06
6674 H 27.808733289747238 100.66993193076554 33.00811557179546 H 0.0 **** 0.06
6675 H 26.42426577921958 101.01302035443474 31.942022234183213 H 0.0 **** 0.06
6676 C 22.08830300356749 133.1090148277757 47.18383939813434 C 0.0 **** -0.24
6677 H 22.022971930025648 133.83482823403745 46.37362783021362 H 0.0 **** 0.06
6678 H 21.210880552675974 132.46272490934643 47.164649874398606 H 0.0 **** 0.06
6679 H 22.133281012610837 133.63399316236212 48.13782250623113 H 0.0 **** 0.06
6680 H 22.98728161228334 132.5057586835793 47.05922589749045 H 0.0 **** 0.06
6681 C 70.37270368987818 20.53125569208754 76.68047812730961 C 0.0 **** -0.24
6682 H 70.18897036951303 21.604972785067602 76.7124579970126 H 0.0 **** 0.06
6683 H 71.09575407135853 20.308782289693966 75.8950324928056 H 0.0 **** 0.06
6684 H 69.43772100041232 20.009787022480168 76.47306812995585 H 0.0 **** 0.06
6685 H 70.76617346160668 20.201263636805294 77.64171630019688 H 0.0 **** 0.06
6686 C 136.00647721160263 1.1439323453142265 80.94347506620178 C 0.0 **** -0.24
6687 H 137.06194587934013 1.4097579109254639 80.99897016448145 H 0.0 **** 0.06
6688 H 135.75526523440845 0.4820050306972803 81.77261610584122 H 0.0 **** 0.06
6689 H 135.8093427147849 0.6357418202391614 79.99989602207734 H 0.0 **** 0.06
6690 H 135.400170943352 2.048109547493368 81.00298460317146 H 0.0 **** 0.06
6691 C 29.93438253782483 113.80648594489213 89.76109108765382 C 0.0 **** -0.24
6692 H 30.72792541488795 114.27518176406656 89.17986914070929 H 0.0 **** 0.06
6693 H 30.052067484855968 112.72315609745476 89.73111162281208 H 0.0 **** 0.06
6694 H 28.96591054180925 114.0786568965759 89.3391312331612 H 0.0 **** 0.06
6695 H 29.98885457902307 114.15009472124098 90.79430785538068 H 0.0 **** 0.06
6696 C 20.353712711336115 64.80750558486199 82.50457667713948 C 0.0 **** -0.24
6697 H 19.59756561118357 64.51615785163023 81.77472656945127 H 0.0 **** 0.06
6698 H 21.34558771164805 64.65320787215364 82.07929644096089 H 0.0 **** 0.06
6699 H 20.24404432060348 64.20088055689604 83.403151076651 H 0.0 **** 0.06
6700 H 20.227108357297467 65.86035338010186 82.7579123180559 H 0.0 **** 0.06
6701 C 59.43118454303769 126.93178294808467 117.75283904521442 C 0.0 **** -0.24
6702 H 60.177701900877935 127.06154202951166 116.96965104123473 H 0.0 **** 0.06
6703 H 59.930970597939506 126.76670158130713 118.70734996958905 H 0.0 **** 0.06
6704 H 58.803949449703026 126.07181495037531 117.5176896247514 H 0.0 **** 0.06
6705 H 58.81190346195177 127.8264169867021 117.81594158254418 H 0.0 **** 0.06
6706 C 134.9046663402238 10.182369611203455 61.60085396127862 C 0.0 **** -0.24
6707 H 135.1098701951816 9.347843204911499 60.92949104070499 H 0.0 **** 0.06
6708 H 135.79372407243972 10.397960243689113 62.19370816143224 H 0.0 **** 0.06
6709 H 134.07957431267928 9.919481606476268 62.263621004300006 H 0.0 **** 0.06
6710 H 134.6353525668542 11.061070369440927 61.015488183739606 H 0.0 **** 0.06
6711 C 67.03398073234919 41.22383938271318 132.25172179162448 C 0.0 **** -0.24
6712 H 67.68070373993038 40.798952813174594 133.02070157636524 H 0.0 **** 0.06
6713 H 66.23289952712236 41.79186756077934 132.72461178857466 H 0.0 **** 0.06
6714 H 66.60568409831767 40.41948197237173 131.65375590092532 H 0.0 **** 0.06
6715 H 67.61792675787541 41.88214637157492 131.60978571020308 H 0.0 **** 0.06
6716 C 54.31644195531214 124.50218510341733 38.22753744290111 C 0.0 **** -0.24
6717 H 54.22450078137422 125.56219005833782 38.464730166650725 H 0.0 **** 0.06
6718 H 55.36468086987031 124.20662638878059 38.2891359158823 H 0.0 **** 0.06
6719 H 53.94637088145436 124.3229827812387 37.218806100832865 H 0.0 **** 0.06
6720 H 53.73229398079809 123.91879159861276 38.93859804630182 H 0.0 **** 0.06
6721 C 127.27843980454423 77.90765505839039 109.1753363438832 C 0.0 **** -0.24
6722 H 126.9748069741269 78.4025068412011 108.25268099581629 H 0.0 **** 0.06
6723 H 128.06290731849535 77.18259967459124 108.95722055332791 H 0.0 **** 0.06
6724 H 126.42087377988759 77.39501362003307 109.61061477394605 H 0.0 **** 0.06
6725 H 127.65411879035706 78.65022510574852 109.87887529722735 H 0.0 **** 0.06
6726 C 93.03572342853717 14.549181516223143 71.8623708797112 C 0.0 **** -0.24
6727 H 93.11136699569452 13.820628222753271 71.05508702840758 H 0.0 **** 0.06
6728 H 93.45878897379045 14.12640610535459 72.7743586101435 H 0.0 **** 0.06
6729 H 91.98796551415828 14.799257765363706 72.02906606629533 H 0.0 **** 0.06
6730 H 93.58563192831107 15.450075749287464 71.59060761222443 H 0.0 **** 0.06
6731 C 4.424419852043144 110.50629893371092 82.55576138275494 C 0.0 **** -0.24
6732 H 4.1256218555138275 110.38593842691168 83.59718453307597 H 0.0 **** 0.06
6733 H 5.448745174114464 110.15709185914864 82.42881226505217 H 0.0 **** 0.06
6734 H 4.360938175029446 111.55849664283343 82.28020726453923 H 0.0 **** 0.06
6735 H 3.759124187456422 109.92362376299565 81.91750167783647 H 0.0 **** 0.06
6736 C 48.96754026392421 102.1758336720776 9.931882300998907 C 0.0 **** -0.24
6737 H 49.81557144157756 101.6243173015032 9.52720733315644 H 0.0 **** 0.06
6738 H 48.40486178143658 102.62734077167158 9.114460530238816 H 0.0 **** 0.06
6739 H 49.328873334942614 102.9586150486004 10.599977251099745 H 0.0 **** 0.06
6740 H 48.32181379019073 101.49495759432057 10.486580557996646 H 0.0 **** 0.06
6741 C 103.5076763658979 41.80724370995235 119.79712342552995 C 0.0 **** -0.24
6742 H 103.30482730162997 41.01756102614583 120.52090695763798 H 0.0 **** 0.06
6743 H 104.39848852641362 41.552872859465545 119.22153390666574 H 0.0 **** 0.06
6744 H 103.67014194780315 42.74876085595782 120.32228100687081 H 0.0 **** 0.06
6745 H 102.65677394405867 41.909043164384926 119.12328960510746 H 0.0 **** 0.06
6746 C 121.23906050001483 38.698339818459075 102.01967681094493 C 0.0 **** -0.24
6747 H 120.48948764602665 39.48951176837006 102.02685546256674 H 0.0 **** 0.06
6748 H 122.01359333870852 38.93843129111529 101.29124010724723 H 0.0 **** 0.06
6749 H 120.76772335984845 37.7534172772293 101.75086885755593 H 0.0 **** 0.06
6750 H 121.68583562050145 38.61298817497935 103.01067186161436 H 0.0 **** 0.06
6751 C 37.53716594649735 4.242277230923719 100.96502466319527 C 0.0 **** -0.24
6752 H 38.11022998883335 5.166387589196006 101.04625736403403 H 0.0 **** 0.06
6753 H 37.411065119399034 3.9859502442108123 99.91271427220913 H 0.0 **** 0.06
6754 H 36.55906448715835 4.379490649945296 101.42578822655156 H 0.0 **** 0.06
6755 H 38.069528014450434 3.438886326399029 101.47311982575242 H 0.0 **** 0.06
6756 C 84.90214738165395 98.38686481472577 65.51227238122601 C 0.0 **** -0.24
6757 H 84.05140571446111 98.65721742323 64.88677726187657 H 0.0 **** 0.06
6758 H 85.028461445674 97.30433844983526 65.5046909628438 H 0.0 **** 0.06
6759 H 84.72391562418608 98.72513862869135 66.53304088197436 H 0.0 **** 0.06
6760 H 85.80348280522634 98.861117130639 65.12422953895093 H 0.0 **** 0.06
6761 C 11.554449645434488 23.36748830343356 2.5423948462708665 C 0.0 **** -0.24
6762 H 10.982748220336532 22.876669477338908 3.3294490886960375 H 0.0 **** 0.06
6763 H 10.895658430933679 23.597219705101736 1.7039142199024013 H 0.0 **** 0.06
6764 H 12.352429917367203 22.705349185554837 2.2066146668054785 H 0.0 **** 0.06
6765 H 11.986571963492509 24.291026941053246 2.9287350932454217 H 0.0 **** 0.06
6766 C 109.7323381551692 35.79253597942167 42.87008986106622 C 0.0 **** -0.24
6767 H 109.21722805858883 36.48059542842839 43.54193578042954 H 0.0 **** 0.06
6768 H 110.63986290054544 36.26474977739696 42.493683119492125 H 0.0 **** 0.06
6769 H 109.07853762038701 35.54235499239539 42.034494621829815 H 0.0 **** 0.06
6770 H 109.99314585815699 34.88372664899842 43.411983745279926 H 0.0 **** 0.06
6771 C 55.68104052662716 91.27060302902987 4.830008058922338 C 0.0 **** -0.24
6772 H 56.04280372656447 90.72072446071502 5.699399256506773 H 0.0 **** 0.06
6773 H 56.46673399085006 91.31605087068453 4.075974022148138 H 0.0 **** 0.06
6774 H 55.4045336131893 92.28175758312949 5.129715390731626 H 0.0 **** 0.06
6775 H 54.80917774521362 90.76281468919314 4.416951915473568 H 0.0 **** 0.06
6776 C 94.17048245239164 83.8896126211464 67.64485224791936 C 0.0 **** -0.24
6777 H 93.69133814876312 83.54888128880054 68.56313542605488 H 0.0 **** 0.06
6778 H 93.92273014705651 83.20692863368288 66.83148303760781 H 0.0 **** 0.06
6779 H 95.2514030232935 83.90984172539703 67.78624035354885 H 0.0 **** 0.06
6780 H 93.81644457785907 84.89026352588161 67.40068851851645 H 0.0 **** 0.06
6781 C 79.95433089974358 134.9347803772731 12.02048522856282 C 0.0 **** -0.24
6782 H 79.30340574424574 135.14709006010264 11.17211849122208 H 0.0 **** 0.06
6783 H 80.31114403175648 133.90640275586622 11.9555547709395 H 0.0 **** 0.06
6784 H 79.39654022879817 135.06867707444735 12.947938923340047 H 0.0 **** 0.06
6785 H 80.80427218731442 135.61705235522186 12.005259632396445 H 0.0 **** 0.06
6786 C 4.599916062842393 63.247424998953534 95.78021177347489 C 0.0 **** -0.24
6787 H 5.152241711985287 63.3711864957304 94.84861983618322 H 0.0 **** 0.06
6788 H 3.64961682547343 63.777729496703614 95.71251689381052 H 0.0 **** 0.06
6789 H 5.185216817789016 63.65202403978998 96.60609779250757 H 0.0 **** 0.06
6790 H 4.412990237769822 62.18748526218246 95.9531498037507 H 0.0 **** 0.06
6791 C 31.029661466566097 9.565545457475878 24.88815960015927 C 0.0 **** -0.24
6792 H 31.82920065070948 9.501321838372519 25.627032077688284 H 0.0 **** 0.06
6793 H 31.361356401843437 9.109075985642448 23.954670322681125 H 0.0 **** 0.06
6794 H 30.780632605114647 10.612282710496288 24.71314868492783 H 0.0 **** 0.06
6795 H 30.150378863869236 9.039121052312566 25.25930850276154 H 0.0 **** 0.06
6796 C 7.349457955007267 12.307954655731606 28.475135186910663 C 0.0 **** -0.24
6797 H 6.435331094481455 11.912271274673174 28.033299499496962 H 0.0 **** 0.06
6798 H 7.326361566211631 13.397292417201612 28.44177548955213 H 0.0 **** 0.06
6799 H 8.209840853560934 11.94481872456447 27.91364823925241 H 0.0 **** 0.06
6800 H 7.424538768717696 11.977198500230656 29.5101299758131 H 0.0 **** 0.06
6801 C 54.753087467036096 82.58110411354147 48.34856104827941 C 0.0 **** -0.24
6802 H 55.16791479024482 81.57391441413476 48.29749921967067 H 0.0 **** 0.06
6803 H 54.87168656222423 83.07154927728001 47.38248038440895 H 0.0 **** 0.06
6804 H 55.280605442946694 83.15206036459948 49.1132013854218 H 0.0 **** 0.06
6805 H 53.694884335223264 82.52609606149072 48.601986103923366 H 0.0 **** 0.06
6806 C 5.669460007452642 81.08371990112788 91.3173651989021 C 0.0 **** -0.24
6807 H 5.445868833565896 80.63656307038791 90.34837920654431 H 0.0 **** 0.06
6808 H 6.667238632506894 80.77904619552741 91.63529109199952 H 0.0 **** 0.06
6809 H 4.935592688409486 80.74799550722665 92.04973186217566 H 0.0 **** 0.06
6810 H 5.630310137182846 82.16952529986479 91.23392086880621 H 0.0 **** 0.06
6811 C 119.95496934953852 102.58015009208384 69.40679514393952 C 0.0 **** -0.24
6812 H 119.36776678380177 102.94647822970057 70.24830738978424 H 0.0 **** 0.06
6813 H 119.79086288932061 101.50829713384928 69.2891710030535 H 0.0 **** 0.06
6814 H 121.01254684189308 102.76797201044019 69.59216190676187 H 0.0 **** 0.06
6815 H 119.64755956492995 103.09621056650633 68.49753728821636 H 0.0 **** 0.06
6816 C 92.33776712834162 42.75673124122741 5.85770692053967 C 0.0 **** -0.24
6817 H 91.56721910874558 42.928209792028156 6.608868610912282 H 0.0 **** 0.06
6818 H 91.86980288403961 42.4620508927255 4.91815434482902 H 0.0 **** 0.06
6819 H 93.00437594472697 41.96366905045869 6.1961106687575125 H 0.0 **** 0.06
6820 H 92.90967057585405 43.67299522969719 5.707694057659893 H 0.0 **** 0.06
6821 C 22.719388783037665 0.6079890276303104 66.75373303072347 C 0.0 **** -0.24
6822 H 22.323533677707452 -0.0683335106276104 67.51208893222108 H 0.0 **** 0.06
6823 H 23.745993450607536 0.3277008354158397 66.51753934905253 H 0.0 **** 0.06
6824 H 22.6998656482816 1.6298632140636755 67.1339699390772 H 0.0 **** 0.06
6825 H 22.107382436541585 0.5442256852161336 65.85418730323225 H 0.0 **** 0.06
6826 C 21.365335066901523 117.08594945496861 21.192590436096424 C 0.0 **** -0.24
6827 H 20.504216706194697 116.84497618507683 21.816172130722208 H 0.0 **** 0.06
6828 H 21.18315670891012 116.7408101853132 20.174076290178988 H 0.0 **** 0.06
6829 H 22.252194898222115 116.59161223023875 21.590845975068078 H 0.0 **** 0.06
6830 H 21.52096017712128 118.16436336075859 21.18971066523298 H 0.0 **** 0.06
6831 C 99.9437896572365 127.89402013536255 111.8590776559247 C 0.0 **** -0.24
6832 H 100.19780936109561 127.26009617899967 111.00970408887167 H 0.0 **** 0.06
6833 H 100.81813380587857 128.47678047394646 112.15135804327139 H 0.0 **** 0.06
6834 H 99.62577343304713 127.2707049725717 112.6953862087862 H 0.0 **** 0.06
6835 H 99.13381728354699 128.56766973751195 111.58027664186795 H 0.0 **** 0.06
6836 C 82.63876431057606 123.21048366271197 96.61510158467297 C 0.0 **** -0.24
6837 H 82.96021788886885 124.20181737061088 96.93434934646928 H 0.0 **** 0.06
6838 H 82.39322884977811 122.60906699461756 97.49059881962619 H 0.0 **** 0.06
6839 H 83.4432514959397 122.73017899101376 96.05776517643352 H 0.0 **** 0.06
6840 H 81.75924692783273 123.30129198405513 95.97750681183744 H 0.0 **** 0.06
6841 C 91.01491919900886 102.42048612793076 45.535543698198694 C 0.0 **** -0.24
6842 H 92.01979281838254 102.78072293104378 45.75572433505829 H 0.0 **** 0.06
6843 H 90.7335401025162 102.72439180279903 44.52689051483708 H 0.0 **** 0.06
6844 H 90.31151661206489 102.84270593218142 46.25227882147368 H 0.0 **** 0.06
6845 H 90.99610491768267 101.33332552855506 45.60534965397477 H 0.0 **** 0.06
6846 C 115.68537114263361 73.45675190682428 98.9702623810727 C 0.0 **** -0.24
6847 H 115.07178927182048 72.55659791709235 99.00855272133379 H 0.0 **** 0.06
6848 H 115.07487142132919 74.32287720791493 99.22772337691674 H 0.0 **** 0.06
6849 H 116.0863503241834 73.5795785601116 97.9640594289259 H 0.0 **** 0.06
6850 H 116.50661511962937 73.36671045275583 99.68070019687013 H 0.0 **** 0.06
6851 C 110.64422230412856 18.331878795391958 79.08903129213434 C 0.0 **** -0.24
6852 H 110.68091253749753 17.245471715559717 79.17246730367617 H 0.0 **** 0.06
6853 H 111.6533012862318 18.719508356753806 78.95256537200947 H 0.0 **** 0.06
6854 H 110.21270112994898 18.751226407981058 79.99782946119541 H 0.0 **** 0.06
6855 H 110.02789838592378 18.609454669931175 78.2337666918585 H 0.0 **** 0.06
6856 C 1.7301451095618177 101.15279280936693 16.84402788558853 C 0.0 **** -0.24
6857 H 2.2994372573277815 100.76175542244096 16.00024040340577 H 0.0 **** 0.06
6858 H 0.6810719609722469 101.24475565606724 16.563251437593976 H 0.0 **** 0.06
6859 H 2.119869874941628 102.13248766400841 17.122385048902714 H 0.0 **** 0.06
6860 H 1.8231697729406733 100.47176234960546 17.69037829613964 H 0.0 **** 0.06
6861 C 0.5740430859724199 54.36219001445437 57.15520875859133 C 0.0 **** -0.24
6862 H -0.4193464871289265 54.72956230969683 57.41472920575511 H 0.0 **** 0.06
6863 H 0.9705240798461112 53.775232246302195 57.98388268501458 H 0.0 **** 0.06
6864 H 1.2333990551682703 55.20648493949133 56.957965830917075 H 0.0 **** 0.06
6865 H 0.5082067257985656 53.736355140508365 56.26537487946668 H 0.0 **** 0.06
6866 C 24.63022270146064 128.04857682131586 73.07742454053266 C 0.0 **** -0.24
6867 H 24.98867519627396 127.62939572995586 72.13688261338825 H 0.0 **** 0.06
6868 H 25.448571569036687 128.5685066825016 73.57776666053803 H 0.0 **** 0.06
6869 H 24.263252404424918 127.24646190463005 73.71719441244943 H 0.0 **** 0.06
6870 H 23.821995257414073 128.75209173026198 72.87650850498312 H 0.0 **** 0.06
6871 C 129.1453673974893 118.19137696242802 86.77859853764309 C 0.0 **** -0.24
6872 H 129.44940755606092 118.45560640794395 87.79115293970796 H 0.0 **** 0.06
6873 H 128.9648074729653 119.10131267640564 86.20507413763653 H 0.0 **** 0.06
6874 H 128.23237179329902 117.59757561263572 86.81642738785848 H 0.0 **** 0.06
6875 H 129.93676087942313 117.61258278416958 86.30183576508648 H 0.0 **** 0.06
6876 C 136.70543514936855 13.164086665382342 66.29017061976433 C 0.0 **** -0.24
6877 H 136.7149653753682 13.59351837854092 67.29153898378087 H 0.0 **** 0.06
6878 H 137.66756090809884 12.6941518090606 66.08785579803111 H 0.0 **** 0.06
6879 H 136.52350217694158 13.950975185705431 65.55907565240955 H 0.0 **** 0.06
6880 H 135.91463734736703 12.416501428886647 66.22284867951731 H 0.0 **** 0.06
6881 C 125.80892047863819 65.0077288670211 117.66761307220065 C 0.0 **** -0.24
6882 H 124.73073931833447 64.8647995776488 117.60699463437419 H 0.0 **** 0.06
6883 H 126.05002576077516 66.04990408735598 117.4590103402735 H 0.0 **** 0.06
6884 H 126.30139154202404 64.36712669948679 116.93478481025346 H 0.0 **** 0.06
6885 H 126.15471730153335 64.74727169709828 118.66784838033504 H 0.0 **** 0.06
6886 C 132.73436616984992 116.33228513466685 86.73640279076713 C 0.0 **** -0.24
6887 H 133.4634880701372 115.52233877979518 86.73989526206935 H 0.0 **** 0.06
6888 H 132.10335360202168 116.25009382866665 85.8514000828207 H 0.0 **** 0.06
6889 H 133.2562565943378 117.29010459303018 86.72389610417085 H 0.0 **** 0.06
6890 H 132.11621598150685 116.26849245039048 87.63142505873043 H 0.0 **** 0.06
6891 C 25.90891750342447 15.042490030175315 106.41048222021635 C 0.0 **** -0.24
6892 H 25.113498906935497 15.02523415421473 105.6654080266253 H 0.0 **** 0.06
6893 H 26.85684559604462 15.27083320770771 105.92377824185617 H 0.0 **** 0.06
6894 H 25.974407571846065 14.067267036888495 106.89363360202391 H 0.0 **** 0.06
6895 H 25.689940132721432 15.804421311025806 107.15867918952301 H 0.0 **** 0.06
6896 C 94.36769275278164 109.23109195922524 85.01086165236364 C 0.0 **** -0.24
6897 H 94.16608982622463 110.0777959437981 84.35450451168879 H 0.0 **** 0.06
6898 H 94.39630579526155 108.31415601255014 84.42342930832848 H 0.0 **** 0.06
6899 H 93.57948788987198 109.15843184552858 85.76021448153614 H 0.0 **** 0.06
6900 H 95.32768057686638 109.37733325579185 85.50645013523513 H 0.0 **** 0.06
6901 C 117.85371628718949 4.028088363693723 31.336345563534962 C 0.0 **** -0.24
6902 H 117.16588053292696 4.769977692749151 30.931684938109896 H 0.0 **** 0.06
6903 H 118.52816325696062 3.690517687167741 30.549527047912363 H 0.0 **** 0.06
6904 H 117.28672174773595 3.178930239463444 31.719214708633444 H 0.0 **** 0.06
6905 H 118.43207511564277 4.472409785676014 32.146233573792784 H 0.0 **** 0.06
6906 C 11.274329916929869 40.40119953016847 102.62039476556161 C 0.0 **** -0.24
6907 H 11.462521489147 39.46459676754807 103.14592239785757 H 0.0 **** 0.06
6908 H 12.03443208650711 41.13215858086602 102.8987914024999 H 0.0 **** 0.06
6909 H 10.288974634043612 40.77955081700111 102.89254607252094 H 0.0 **** 0.06
6910 H 11.313199913288074 40.22734372952573 101.54550718991229 H 0.0 **** 0.06
6911 C 134.31413410306408 36.23385523551364 30.262652272387925 C 0.0 **** -0.24
6912 H 134.43663027379085 35.97361566568962 29.210727764331352 H 0.0 **** 0.06
6913 H 135.15516047286732 35.84114118194989 30.834024633702143 H 0.0 **** 0.06
6914 H 133.38592163055904 35.802624799388816 30.636775181408197 H 0.0 **** 0.06
6915 H 134.27801040672554 37.3183271653662 30.365879065817694 H 0.0 **** 0.06
6916 C 119.68266535344316 112.72509382777523 114.89192884118796 C 0.0 **** -0.24
6917 H 118.68992889159878 112.45555759496355 115.25345426799811 H 0.0 **** 0.06
6918 H 119.65525940584268 113.72988869151587 114.47064004962579 H 0.0 **** 0.06
6919 H 119.99310853885584 112.01745936312318 114.12339872528588 H 0.0 **** 0.06
6920 H 120.3914321114861 112.69676791226937 115.71942348024828 H 0.0 **** 0.06
6921 C 96.03388245324749 125.63876283941431 108.40806317835064 C 0.0 **** -0.24
6922 H 96.92374831291586 125.86946877199557 107.82278583836309 H 0.0 **** 0.06
6923 H 95.41762089797696 126.53315535413586 108.50050123494455 H 0.0 **** 0.06
6924 H 96.33138265849686 125.29702021480497 109.40046368383746 H 0.0 **** 0.06
6925 H 95.46429577298554 124.85335778361204 107.91008222672203 H 0.0 **** 0.06
6926 C 97.24684522846516 23.049502082484594 12.26262648213553 C 0.0 **** -0.24
6927 H 96.3870496108143 23.22566401970022 12.910393888050308 H 0.0 **** 0.06
6928 H 97.08067036054325 23.53244554246939 11.299773127869997 H 0.0 **** 0.06
6929 H 97.3757492357779 21.97711596556107 12.114992306271375 H 0.0 **** 0.06
6930 H 98.14186789431267 23.463496985434006 12.727166810711196 H 0.0 **** 0.06
6931 C 116.34318892497436 97.40393161133407 109.19255712717046 C 0.0 **** -0.24
6932 H 117.3111826898812 97.39653887943203 109.69489321086041 H 0.0 **** 0.06
6933 H 115.67999294711166 98.1105065581084 109.69286509315964 H 0.0 **** 0.06
6934 H 115.90706682720977 96.40586464021543 109.22973079021128 H 0.0 **** 0.06
6935 H 116.47670973923883 97.70370720764332 108.15335751981591 H 0.0 **** 0.06
6936 C 83.04317435376414 128.40881515460228 127.44248737944565 C 0.0 **** -0.24
6937 H 82.22986376843686 127.70019491560174 127.59873816252784 H 0.0 **** 0.06
6938 H 83.82833483646186 127.93403276506533 126.85324650588025 H 0.0 **** 0.06
6939 H 83.44741463853222 128.71508198429888 128.407138335608 H 0.0 **** 0.06
6940 H 82.66664245550145 129.28237629037307 126.91099166007817 H 0.0 **** 0.06
6941 C 25.38433958722537 53.630551699829695 38.056298214529875 C 0.0 **** -0.24
6942 H 25.837151660872706 53.04000673114261 38.85208642724865 H 0.0 **** 0.06
6943 H 26.168587939586068 54.064507368922165 37.434621335681186 H 0.0 **** 0.06
6944 H 24.783806243000754 54.42914845310584 38.49301326694314 H 0.0 **** 0.06
6945 H 24.748566733172353 52.99052271392401 37.44475277503449 H 0.0 **** 0.06
6946 C 110.30525601151666 11.2585354923459 37.297683144536734 C 0.0 **** -0.24
6947 H 109.62300341131564 11.114957253855906 38.13550277740143 H 0.0 **** 0.06
6948 H 110.19429173074661 10.434763598170576 36.593381502209354 H 0.0 **** 0.06
6949 H 111.3308097461107 11.286837355593534 37.66563096236479 H 0.0 **** 0.06
6950 H 110.07224486009443 12.19942219190925 36.797688993454244 H 0.0 **** 0.06
6951 C 16.695674386355392 3.310142839213313 13.28652431993342 C 0.0 **** -0.24
6952 H 17.234749657015584 2.8656513029603197 14.124015965558101 H 0.0 **** 0.06
6953 H 17.338077925354924 3.3194868609856485 12.406359327210453 H 0.0 **** 0.06
6954 H 16.410085770021226 4.33117167104265 13.5403753532525 H 0.0 **** 0.06
6955 H 15.801007720628434 2.7229169741178367 13.07861708022989 H 0.0 **** 0.06
6956 C 16.843560385222844 27.250605569645018 75.16470558789001 C 0.0 **** -0.24
6957 H 17.7532958242046 26.83633904880287 75.60033936157618 H 0.0 **** 0.06
6958 H 17.10775685507147 27.957693452645287 74.37745398934103 H 0.0 **** 0.06
6959 H 16.272157974307603 27.76454933331712 75.93775484957703 H 0.0 **** 0.06
6960 H 16.2430744544178 26.445055170730768 74.74386453235331 H 0.0 **** 0.06
6961 C 71.92881486522431 116.40659689135867 91.84885506451764 C 0.0 **** -0.24
6962 H 72.11976129769509 117.12888880856485 91.05558406564847 H 0.0 **** 0.06
6963 H 71.36909419220777 116.88828464909912 92.65139901572977 H 0.0 **** 0.06
6964 H 72.87645299693044 116.03456570025182 92.2381310841701 H 0.0 **** 0.06
6965 H 71.34866135507004 115.57438780428006 91.44978738114384 H 0.0 **** 0.06
6966 C 43.735017211600784 110.04883614715789 1.6408613586735328 C 0.0 **** -0.24
6967 H 44.23005541706293 109.67667642051961 2.5375722118259603 H 0.0 **** 0.06
6968 H 43.11501930403949 110.9080588019369 1.8979568981417003 H 0.0 **** 0.06
6969 H 43.11002562195621 109.26160590031003 1.2184431479936393 H 0.0 **** 0.06
6970 H 44.485138830957624 110.34767250364956 0.9090263873213758 H 0.0 **** 0.06
6971 C 135.9376268814055 70.92187899343001 16.434888685334954 C 0.0 **** -0.24
6972 H 136.9461955066468 71.22865729701678 16.71312687830644 H 0.0 **** 0.06
6973 H 135.50228293085456 70.33037146750164 17.240215045610142 H 0.0 **** 0.06
6974 H 135.97904790759168 70.32316175375738 15.524910095647485 H 0.0 **** 0.06
6975 H 135.3238805100927 71.80640745392446 16.26115927033078 H 0.0 **** 0.06
6976 C 27.15857273501922 20.488954906555463 54.21932598242934 C 0.0 **** -0.24
6977 H 27.751407812158448 19.74562282046064 53.686340953185905 H 0.0 **** 0.06
6978 H 27.183825218831572 20.274579246813914 55.28792481677122 H 0.0 **** 0.06
6979 H 26.128596426833866 20.454120244688724 53.865314146898015 H 0.0 **** 0.06
6980 H 27.572569255490095 21.480848388700252 54.03809336274219 H 0.0 **** 0.06
6981 C 95.09849228964269 5.992112830923759 123.0171811578133 C 0.0 **** -0.24
6982 H 95.534409335179 5.062050280572265 122.65183192345074 H 0.0 **** 0.06
6983 H 94.03219371726001 5.848177417542246 123.1943309786548 H 0.0 **** 0.06
6984 H 95.24008439810116 6.7760853674386965 122.27291586817914 H 0.0 **** 0.06
6985 H 95.58580095720589 6.282145449018685 123.94797028434533 H 0.0 **** 0.06
6986 C 63.826748962809276 100.1245315178937 71.94278090592525 C 0.0 **** -0.24
6987 H 63.12275016878206 100.499368372843 71.20017531220932 H 0.0 **** 0.06
6988 H 64.84554983996452 100.28861286406972 71.59178497265714 H 0.0 **** 0.06
6989 H 63.661334551774004 99.05706371111887 72.09348486596548 H 0.0 **** 0.06
6990 H 63.67739576179292 100.6523606200715 72.88498584537984 H 0.0 **** 0.06
6991 C 15.860711081714669 75.3429621588449 118.61173195175212 C 0.0 **** -0.24
6992 H 16.271525989206935 76.08256986728708 119.29970844661256 H 0.0 **** 0.06
6993 H 15.87100018252113 75.74522793308006 117.5981622717685 H 0.0 **** 0.06
6994 H 14.836401636651203 75.10948310680925 118.900083642749 H 0.0 **** 0.06
6995 H 16.465061814244194 74.43701005857821 118.64982414601494 H 0.0 **** 0.06
6996 C 17.04008428783669 124.5296161536215 60.45893234442771 C 0.0 **** -0.24
6997 H 17.314885283322432 123.64801769625892 61.03869752945671 H 0.0 **** 0.06
6998 H 16.115785964709126 124.95034759617796 60.85476150110759 H 0.0 **** 0.06
6999 H 16.895142024540114 124.24723265552699 59.41675371015141 H 0.0 **** 0.06
7000 H 17.836187678740806 125.27061308974396 60.52799732444649 H 0.0 **** 0.06
7001 C 79.44953282047214 71.72903076399768 32.18794657607566 C 0.0 **** -0.24
7002 H 79.55358718300715 70.79259999153106 31.640275926904962 H 0.0 **** 0.06
7003 H 79.94572188826834 71.64115625167494 33.1555434119079 H 0.0 **** 0.06
7004 H 78.39290748269894 71.94633362179195 32.34007601448582 H 0.0 **** 0.06
7005 H 79.90777710091635 72.53613384529905 31.616613184274854 H 0.0 **** 0.06
7006 C 51.76351282725736 53.03144246204995 6.0725539380646865 C 0.0 **** -0.24
7007 H 51.480177453109945 53.95488405292336 6.575222461509924 H 0.0 **** 0.06
7008 H 51.40226981164108 53.05082281595871 5.043705063043404 H 0.0 **** 0.06
7009 H 51.32353294517219 52.18199801675506 6.595920868174261 H 0.0 **** 0.06
7010 H 52.84987411723762 52.934924233114856 6.074426300019667 H 0.0 **** 0.06
7011 C 21.050731470238098 78.99416806799542 68.49016940883331 C 0.0 **** -0.24
7012 H 22.0582794215781 78.78411135915104 68.85025884985586 H 0.0 **** 0.06
7013 H 20.32508374249803 78.67903865553183 69.24081776060655 H 0.0 **** 0.06
7014 H 20.875220754417334 78.44927915146275 67.56314563794962 H 0.0 **** 0.06
7015 H 20.94596255059306 80.06362262355287 68.30909908873898 H 0.0 **** 0.06
7016 C 100.21375269946577 121.06291668009668 71.22954646517422 C 0.0 **** -0.24
7017 H 99.84419445088804 122.06583290414687 71.01600301234848 H 0.0 **** 0.06
7018 H 100.4832260564977 120.9922316464886 72.28332290997656 H 0.0 **** 0.06
7019 H 101.09131878139414 120.86120085272704 70.61442321817299 H 0.0 **** 0.06
7020 H 99.43631388813213 120.33377390300662 71.00240829967689 H 0.0 **** 0.06
7021 C 127.6317599430587 1.9941656087626143 134.98053983237918 C 0.0 **** -0.24
7022 H 127.8472041379656 3.0453987218720044 135.1714293171184 H 0.0 **** 0.06
7023 H 128.11185249900828 1.6874688801109698 134.0507202997909 H 0.0 **** 0.06
7024 H 126.55384383406029 1.8537462062444092 134.8968419263438 H 0.0 **** 0.06
7025 H 128.014422772831 1.389224958856147 135.80365896979524 H 0.0 **** 0.06
7026 C 32.858309740900836 36.399574147653766 48.098061547536304 C 0.0 **** -0.24
7027 H 32.97368643252398 37.46891378167436 47.9213639974094 H 0.0 **** 0.06
7028 H 33.66327769774071 35.860301653583235 47.597541934208664 H 0.0 **** 0.06
7029 H 31.89808631048396 36.06738171337042 47.70404607805153 H 0.0 **** 0.06
7030 H 32.899864727661594 36.203092735756854 49.169793481636844 H 0.0 **** 0.06
7031 C 30.749770213342728 20.91982146133458 11.023051895236616 C 0.0 **** -0.24
7032 H 31.701373085678156 21.013414635034657 11.54540552010992 H 0.0 **** 0.06
7033 H 30.424229170545686 19.879327770797808 11.044731754260336 H 0.0 **** 0.06
7034 H 30.870441866795346 21.24226805342559 9.98913430562293 H 0.0 **** 0.06
7035 H 30.00378224434644 21.544204920455314 11.513598790381309 H 0.0 **** 0.06
7036 C 46.71349323308172 3.155887076650913 90.908346841553 C 0.0 **** -0.24
7037 H 46.31751232824644 3.8321674947845565 90.1502617437529 H 0.0 **** 0.06
7038 H 46.75955228213435 3.6729066848845378 91.86702424749052 H 0.0 **** 0.06
7039 H 47.71430496466317 2.8339956671513846 90.62020127443242 H 0.0 **** 0.06
7040 H 46.06307626085419 2.2865309327160617 90.99514913528759 H 0.0 **** 0.06
7041 C 49.25765728533743 53.79559386838696 113.15293901536353 C 0.0 **** -0.24
7042 H 48.5566728542298 54.4721729412006 112.66364394275692 H 0.0 **** 0.06
7043 H 49.75056521712284 53.17801313267725 112.40148315409743 H 0.0 **** 0.06
7044 H 48.7175232584099 53.156593161332125 113.85166743169574 H 0.0 **** 0.06
7045 H 50.00514309383826 54.37482480648012 113.69402357247486 H 0.0 **** 0.06
7046 C 90.16261023407748 121.72933304262602 101.12340542929294 C 0.0 **** -0.24
7047 H 91.13795967870816 121.72491889885836 101.61046503440004 H 0.0 **** 0.06
7048 H 89.38452487760524 121.56663816679242 101.86956804053692 H 0.0 **** 0.06
7049 H 90.12472147549433 120.93521712015985 100.37851728303846 H 0.0 **** 0.06
7050 H 90.00418630389821 122.69202010772813 100.63679104332431 H 0.0 **** 0.06
7051 C 88.54857038340596 83.97189684341204 11.010147132380535 C 0.0 **** -0.24
7052 H 89.16193972991054 83.10246851779348 11.247963280247522 H 0.0 **** 0.06
7053 H 88.19388310502634 83.89495085578724 9.981886292401434 H 0.0 **** 0.06
7054 H 89.14512309016324 84.87733411681263 11.121911516617057 H 0.0 **** 0.06
7055 H 87.69620510280609 84.01188990242251 11.68745798322384 H 0.0 **** 0.06
7056 C 29.341550970881002 47.215537903218035 123.12412483191521 C 0.0 **** -0.24
7057 H 29.290029573069916 46.33184687802826 123.75983605601223 H 0.0 **** 0.06
7058 H 28.666525860499917 47.97940669344533 123.51080901861785 H 0.0 **** 0.06
7059 H 29.047020684668524 46.949550441206014 122.10845820967661 H 0.0 **** 0.06
7060 H 30.361032870099464 47.599970799526275 123.11864544615125 H 0.0 **** 0.06
7061 C 77.88385987094102 91.8660142781747 42.93707382050718 C 0.0 **** -0.24
7062 H 77.15986807425946 91.99151625038468 42.13084477153987 H 0.0 **** 0.06
7063 H 77.65360380971703 92.56329098408446 43.7423826969561 H 0.0 **** 0.06
7064 H 78.88604793341372 92.06564059977143 42.55797294487755 H 0.0 **** 0.06
7065 H 77.83366471673702 90.84463480046014 43.31429055847076 H 0.0 **** 0.06
7066 C 6.465220837657199 2.9415790355446063 24.70753796709937 C 0.0 **** -0.24
7067 H 6.085136830362718 3.547618747469727 25.52919484171818 H 0.0 **** 0.06
7068 H 6.795682100951776 1.9766715688173804 25.090348540846094 H 0.0 **** 0.06
7069 H 7.305102804067904 3.4541867260232095 24.23807900060868 H 0.0 **** 0.06
7070 H 5.674665464469459 2.7901552691764095 23.97178926057518 H 0.0 **** 0.06
7071 C 9.526282956132661 70.84163125041644 124.3584820950914 C 0.0 **** -0.24
7072 H 8.618373437350101 70.35791969274379 123.99593475837571 H 0.0 **** 0.06
7073 H 9.642528805735083 71.80848782318571 123.87029743265987 H 0.0 **** 0.06
7074 H 10.387788635149207 70.21259425768108 124.13199470382932 H 0.0 **** 0.06
7075 H 9.454681332383927 70.9845794130973 125.43719760087919 H 0.0 **** 0.06
7076 C 72.42146556845051 22.0201866655198 13.898188708790599 C 0.0 **** -0.24
7077 H 71.84997872339625 22.18777476764273 12.985011235483 H 0.0 **** 0.06
7078 H 71.77798762721608 22.180418831294524 14.763943239886828 H 0.0 **** 0.06
7079 H 73.25933358161592 22.71616262726959 13.934681147674894 H 0.0 **** 0.06
7080 H 72.7980435612433 20.997694967151837 13.908948455558857 H 0.0 **** 0.06
7081 C 60.505274326950655 111.14928612051793 105.47522698856909 C 0.0 **** -0.24
7082 H 60.514197901088465 112.13818250766613 105.0167966562924 H 0.0 **** 0.06
7083 H 60.44534782394172 111.2527453857193 106.5594507370995 H 0.0 **** 0.06
7084 H 61.41883305822722 110.61730854465071 105.21135898359069 H 0.0 **** 0.06
7085 H 59.64209625373459 110.58931702426256 105.11603029218989 H 0.0 **** 0.06
7086 C 104.80540991932173 7.477751817944679 103.56013432584541 C 0.0 **** -0.24
7087 H 104.05286020876004 7.492079705139588 102.77258836233113 H 0.0 **** 0.06
7088 H 105.79945366995386 7.451813604332539 103.1134853568617 H 0.0 **** 0.06
7089 H 104.66363014472775 6.593610216575492 104.18229204098179 H 0.0 **** 0.06
7090 H 104.70648387499159 8.37308062313041 104.17445188370095 H 0.0 **** 0.06
7091 C 64.28854477830181 89.47119999380575 52.763043485498585 C 0.0 **** -0.24
7092 H 65.00166876224328 88.9644776362595 53.41345467015191 H 0.0 **** 0.06
7093 H 63.7416422416632 90.22019553555796 53.33725985182224 H 0.0 **** 0.06
7094 H 63.58781307489366 88.74257116701752 52.35565771681661 H 0.0 **** 0.06
7095 H 64.82278702022741 89.95724949294673 51.94748532537953 H 0.0 **** 0.06
7096 C 7.776611915708202 88.81632488665508 26.6406366061903 C 0.0 **** -0.24
7097 H 6.851802441780421 88.90074118366596 26.07089777432357 H 0.0 **** 0.06
7098 H 8.413005101297813 88.05582270580481 26.18859104467117 H 0.0 **** 0.06
7099 H 7.545718286602096 88.53340325239728 27.66807009953456 H 0.0 **** 0.06
7100 H 8.294676941857347 89.77585053058709 26.635413984808366 H 0.0 **** 0.06
7101 C 26.317837368788958 81.07918028475129 122.27165025009722 C 0.0 **** -0.24
7102 H 26.524580554521265 80.02544115497422 122.46242820580821 H 0.0 **** 0.06
7103 H 27.110465942369387 81.49771552872204 121.65065644951524 H 0.0 **** 0.06
7104 H 26.273809960706046 81.61700446215504 123.21838663136046 H 0.0 **** 0.06
7105 H 25.363037421473905 81.17417244164317 121.755070550883 H 0.0 **** 0.06
7106 C 33.576869294822075 74.71006613687848 102.0119428161899 C 0.0 **** -0.24
7107 H 33.41521868145577 75.72795593362855 101.65392939550361 H 0.0 **** 0.06
7108 H 32.933546014065556 74.02507064429565 101.45985461367852 H 0.0 **** 0.06
7109 H 33.33863820358085 74.65749981769613 103.07408959098251 H 0.0 **** 0.06
7110 H 34.61932577483405 74.4324594849246 101.85888055919665 H 0.0 **** 0.06
7111 C 62.65098715215812 44.383834562957816 100.08642649349476 C 0.0 **** -0.24
7112 H 61.899815587613574 43.871325548680545 100.68717922135882 H 0.0 **** 0.06
7113 H 63.62391839507799 44.296189475134156 100.57071073821349 H 0.0 **** 0.06
7114 H 62.384093150854355 45.436240340152324 99.99211469836497 H 0.0 **** 0.06
7115 H 62.69488560573052 43.92991009994489 99.09652268029875 H 0.0 **** 0.06
7116 C 17.24979747795765 31.478354374269543 61.52919286894547 C 0.0 **** -0.24
7117 H 17.035622044021522 30.720004239959735 60.77545149088246 H 0.0 **** 0.06
7118 H 18.123553054171673 31.179132783651653 62.10761025193494 H 0.0 **** 0.06
7119 H 16.391917027009548 31.580643186348652 62.193876401449785 H 0.0 **** 0.06
7120 H 17.44586430674935 32.431659532660376 61.03951635824512 H 0.0 **** 0.06
7121 C 84.49690140565468 122.13716732178821 69.19830875689519 C 0.0 **** -0.24
7122 H 85.42509984173444 121.92432078272537 68.6682096484916 H 0.0 **** 0.06
7123 H 84.13688104602511 121.2279459552982 69.6796255993246 H 0.0 **** 0.06
7124 H 83.7488809171814 122.49568287176905 68.49079972100014 H 0.0 **** 0.06
7125 H 84.67713700536734 122.90195361411475 69.9534498663607 H 0.0 **** 0.06
7126 C 113.59012305209114 109.84508207217499 67.52592542809563 C 0.0 **** -0.24
7127 H 114.15363686664011 110.35477700070473 68.3083859005934 H 0.0 **** 0.06
7128 H 113.47834701535587 110.50959540736471 66.66829481045316 H 0.0 **** 0.06
7129 H 112.60580416911674 109.57305554405099 67.9068335016113 H 0.0 **** 0.06
7130 H 114.12433244725605 108.94572878619572 67.22201757985478 H 0.0 **** 0.06
7131 C 43.73382357484428 107.9297181278348 55.29173081715348 C 0.0 **** -0.24
7132 H 42.94424582451501 108.10328956674198 56.0217787065107 H 0.0 **** 0.06
7133 H 43.30000290430928 107.87080947268629 54.29295431059988 H 0.0 **** 0.06
7134 H 44.2431017680442 106.99390478632824 55.52374420578718 H 0.0 **** 0.06
7135 H 44.449748204974355 108.75147570975548 55.32961902701538 H 0.0 **** 0.06
7136 C 19.676753382191976 132.92960503632372 52.073274080238534 C 0.0 **** -0.24
7137 H 19.978064822934357 132.18252140959265 52.80720902839502 H 0.0 **** 0.06
7138 H 19.19209507607274 133.76324846041945 52.58164898007051 H 0.0 **** 0.06
7139 H 18.979611301009193 132.48113089934054 51.36410342402647 H 0.0 **** 0.06
7140 H 20.555372629490357 133.29035624616364 51.5390617473398 H 0.0 **** 0.06
7141 C 122.24562723348095 82.3860075756549 109.68681644413786 C 0.0 **** -0.24
7142 H 121.40879717443357 82.9332684183812 109.25045973144574 H 0.0 **** 0.06
7143 H 122.52012069446766 82.84229790352265 110.63778096932228 H 0.0 **** 0.06
7144 H 123.09604177329476 82.42067497381768 109.00662066635095 H 0.0 **** 0.06
7145 H 121.9535032750544 81.34874131106668 109.85155370379152 H 0.0 **** 0.06
7146 C 128.36880732614836 103.83927982074286 66.5646470690333 C 0.0 **** -0.24
7147 H 128.76881278084542 104.85285278805149 66.57139277308067 H 0.0 **** 0.06
7148 H 127.44167379384173 103.81108076886109 67.13611205913139 H 0.0 **** 0.06
7149 H 129.0940329613319 103.1605589894071 67.01361129563594 H 0.0 **** 0.06
7150 H 128.1729235267428 103.5329255387063 65.53757326127365 H 0.0 **** 0.06
7151 C 104.65570388908661 119.82108633593981 117.84680325214478 C 0.0 **** -0.24
7152 H 105.65796703737945 119.78538278515822 117.41879631142893 H 0.0 **** 0.06
7153 H 104.70927911850046 119.60372138331047 118.91336886870806 H 0.0 **** 0.06
7154 H 104.02480309893707 119.08008476430757 117.35597036551246 H 0.0 **** 0.06
7155 H 104.23304355636736 120.81427215258822 117.69889725312623 H 0.0 **** 0.06
7156 C 129.21022505221677 93.07404928765163 109.95443889189349 C 0.0 **** -0.24
7157 H 128.3716625255344 93.20647951906415 109.26994474435568 H 0.0 **** 0.06
7158 H 129.51752104523055 92.02803101118923 109.95428989234415 H 0.0 **** 0.06
7159 H 128.90791052786548 93.36405906984106 110.9597886964782 H 0.0 **** 0.06
7160 H 130.04365013183187 93.69774757399313 109.63057601378148 H 0.0 **** 0.06
7161 C 117.40948324938972 121.47277419123844 110.4925537670708 C 0.0 **** -0.24
7162 H 117.579260130596 122.02983988453616 109.57156155646129 H 0.0 **** 0.06
7163 H 117.69866355528211 120.43146790372253 110.34441831935507 H 0.0 **** 0.06
7164 H 116.35354406603696 121.52289481853381 110.75830821690016 H 0.0 **** 0.06
7165 H 118.0072271995686 121.90561731266547 111.29458933690756 H 0.0 **** 0.06
7166 C 46.2392965664 5.8243752050270245 98.32647583908903 C 0.0 **** -0.24
7167 H 45.80195089336554 4.923032359712124 98.75537195470349 H 0.0 **** 0.06
7168 H 46.58497670306335 5.613051467127605 97.3136764182886 H 0.0 **** 0.06
7169 H 47.08224140331302 6.146215529551057 98.9384757542015 H 0.0 **** 0.06
7170 H 45.48884446714639 6.613790718090854 98.2978085507543 H 0.0 **** 0.06
7171 C 134.88604307488606 29.362714602257427 11.563651616493871 C 0.0 **** -0.24
7172 H 134.0055745256726 28.822548924330306 11.216804100686375 H 0.0 **** 0.06
7173 H 135.03781191686633 29.165617267255186 12.625305026077285 H 0.0 **** 0.06
7174 H 134.74024169326003 30.431250872878422 11.409829668035115 H 0.0 **** 0.06
7175 H 135.7603348015224 29.030528325623493 11.003727226065848 H 0.0 **** 0.06
7176 C 89.4298244336897 65.0906789750408 55.021889486744726 C 0.0 **** -0.24
7177 H 88.60082091084365 64.60884062610556 55.538552767338984 H 0.0 **** 0.06
7178 H 89.08753992954661 65.46591629410916 54.05700639836306 H 0.0 **** 0.06
7179 H 90.23086807550243 64.36841383835564 54.86671801295509 H 0.0 **** 0.06
7180 H 89.80090403204412 65.92111675316107 55.623927000335954 H 0.0 **** 0.06
7181 C 18.630784045252128 121.99148009043077 16.861268911047432 C 0.0 **** -0.24
7182 H 18.476533797252166 120.93170107546521 17.064493830685294 H 0.0 **** 0.06
7183 H 18.062359715831477 122.58465964822258 17.577757477641633 H 0.0 **** 0.06
7184 H 18.29427788365068 122.22081287040166 15.850942690986109 H 0.0 **** 0.06
7185 H 19.691419315841557 122.2275321270449 16.954603683813076 H 0.0 **** 0.06
7186 C 98.90174099486444 119.33515338209821 98.68952290809253 C 0.0 **** -0.24
7187 H 99.81826636197036 119.6775912597235 99.16909727654308 H 0.0 **** 0.06
7188 H 98.04085312104877 119.74010274764049 99.2212240729703 H 0.0 **** 0.06
7189 H 98.86459636322991 118.24656643250233 98.71223273901352 H 0.0 **** 0.06
7190 H 98.88389765151567 119.67748535760552 97.65499331466847 H 0.0 **** 0.06
7191 C 60.019775130498374 40.864404677662435 103.16127589376967 C 0.0 **** -0.24
7192 H 59.808832432407655 40.64461010910321 102.114928644244 H 0.0 **** 0.06
7193 H 59.09894112768677 41.16274097304341 103.6625395576522 H 0.0 **** 0.06
7194 H 60.7465877482515 41.67510448415305 103.22267913454331 H 0.0 **** 0.06
7195 H 60.426082889080305 39.97500364585494 103.64454491242462 H 0.0 **** 0.06
7196 C 120.8649445999979 44.74509613724649 19.165165437779848 C 0.0 **** -0.24
7197 H 121.00420189172428 44.8699039054119 18.091381714709883 H 0.0 **** 0.06
7198 H 120.74192090781779 43.68582137663222 19.394743960371812 H 0.0 **** 0.06
7199 H 119.97581612570443 45.29109329235109 19.481827344786097 H 0.0 **** 0.06
7200 H 121.73625764389786 45.13234771447165 19.69259109265991 H 0.0 **** 0.06
7201 C 75.61114627127326 64.61437522534703 111.464782555239 C 0.0 **** -0.24
7202 H 74.66473413824959 64.95534320124028 111.0445909383555 H 0.0 **** 0.06
7203 H 75.4756242350494 63.63132563744155 111.91558555146648 H 0.0 **** 0.06
7204 H 75.94596703548658 65.3200265504516 112.22597201122647 H 0.0 **** 0.06
7205 H 76.35850011430192 64.55279086935944 110.67300877770177 H 0.0 **** 0.06
7206 C 110.60348467917981 102.98484428278567 58.87281554006627 C 0.0 **** -0.24
7207 H 110.0786201489943 102.41779629570732 58.103851381086656 H 0.0 **** 0.06
7208 H 110.66589860581053 102.3889284613789 59.78354761550993 H 0.0 **** 0.06
7209 H 110.06048414356883 103.90684060775641 59.07799401599185 H 0.0 **** 0.06
7210 H 111.60838024191764 103.22431520271084 58.52519700833331 H 0.0 **** 0.06
7211 C 33.769913050044636 100.3196107396127 52.09876665889442 C 0.0 **** -0.24
7212 H 33.25832391951462 99.35869867284504 52.14505469542087 H 0.0 **** 0.06
7213 H 33.403916515767975 100.9644014564596 52.89817429004381 H 0.0 **** 0.06
7214 H 33.57545999037768 100.78919724796117 51.13434683550304 H 0.0 **** 0.06
7215 H 34.84270055293237 100.16603134118043 52.218685123113346 H 0.0 **** 0.06
7216 C 31.217809825425434 108.26755354345468 84.01962527351645 C 0.0 **** -0.24
7217 H 30.762396924147936 107.91541186470046 83.09415869952299 H 0.0 **** 0.06
7218 H 32.27797611555073 108.46093490713452 83.85266659810446 H 0.0 **** 0.06
7219 H 31.104303926843244 107.50783344263805 84.79272993969897 H 0.0 **** 0.06
7220 H 30.726895361967593 109.18697354944125 84.33886642158211 H 0.0 **** 0.06
7221 C 40.86879202384836 53.32501070577334 28.28754100861582 C 0.0 **** -0.24
7222 H 41.43049057288823 53.84831503923651 29.06247549528888 H 0.0 **** 0.06
7223 H 40.19830229260691 54.02544931161236 27.789704351257 H 0.0 **** 0.06
7224 H 40.286156086697986 52.52342086915044 28.740224238055845 H 0.0 **** 0.06
7225 H 41.56158788747268 52.90440352290037 27.559077883527465 H 0.0 **** 0.06
7226 C 76.3947611489101 20.302620032414097 27.71461520023192 C 0.0 **** -0.24
7227 H 75.95298770221399 19.342902968409277 27.44352385906666 H 0.0 **** 0.06
7228 H 76.11009564344013 21.054631420395594 26.97776341782017 H 0.0 **** 0.06
7229 H 77.48053887846336 20.20801557722413 27.737891689195266 H 0.0 **** 0.06
7230 H 76.03412613819282 20.602299271346567 28.698099190171632 H 0.0 **** 0.06
7231 C 129.4980029245709 64.76240034870654 61.13807396374493 C 0.0 **** -0.24
7232 H 129.0066749666982 64.04382631473652 60.48249084060403 H 0.0 **** 0.06
7233 H 130.5562589263731 64.51116871850178 61.223338645826885 H 0.0 **** 0.06
7234 H 129.03647931556978 64.72777646299147 62.12463930849 H 0.0 **** 0.06
7235 H 129.39367833338076 65.7643329589668 60.72260139897621 H 0.0 **** 0.06
7236 C 52.58764867604697 122.7877289235113 75.0252719643479 C 0.0 **** -0.24
7237 H 53.224163849782684 121.90421388605343 75.0619411251065 H 0.0 **** 0.06
7238 H 51.66756937773118 122.59561259106518 75.57724611478196 H 0.0 **** 0.06
7239 H 52.34654327278926 123.01895869251422 73.98712115719275 H 0.0 **** 0.06
7240 H 53.11103284654098 123.6318549452713 75.47365160762718 H 0.0 **** 0.06
7241 C 96.11269354626093 9.989607107728844 20.555248803852123 C 0.0 **** -0.24
7242 H 96.69593434536871 10.140599811216923 19.645906449392214 H 0.0 **** 0.06
7243 H 96.59761228028587 10.500269568455565 21.386347273947024 H 0.0 **** 0.06
7244 H 96.0472101528651 8.923266022876003 20.770433975349533 H 0.0 **** 0.06
7245 H 95.1101963049576 10.393724831693163 20.413989411988098 H 0.0 **** 0.06
7246 C 35.13808106856038 50.602064088065305 47.28058348241325 C 0.0 **** -0.24
7247 H 36.11256103477365 50.779524880926715 47.735212462861256 H 0.0 **** 0.06
7248 H 35.21768600016597 49.789376819053786 46.558184323187476 H 0.0 **** 0.06
7249 H 34.80295201012686 51.50708977604236 46.77403331284839 H 0.0 **** 0.06
7250 H 34.41958333124563 50.33120758810071 48.05408384479273 H 0.0 **** 0.06
7251 C 9.169720825250508 121.34645055630091 107.52688107612543 C 0.0 **** -0.24
7252 H 10.216205207745347 121.53750333302841 107.7672857284227 H 0.0 **** 0.06
7253 H 8.5611268801959 122.18573117021963 107.86354191994549 H 0.0 **** 0.06
7254 H 8.842195985044725 120.43520235854064 108.02791030637057 H 0.0 **** 0.06
7255 H 9.061666356168075 121.22799383614861 106.44827255333695 H 0.0 **** 0.06
7256 C 100.60857166654262 57.41230497444887 66.75822746387577 C 0.0 **** -0.24
7257 H 101.18755191642742 56.77862215915472 66.08649685070553 H 0.0 **** 0.06
7258 H 99.54488636759822 57.25798685487487 66.57614896954172 H 0.0 **** 0.06
7259 H 100.8595204358254 58.45781568013658 66.57811594248953 H 0.0 **** 0.06
7260 H 100.84130861904663 57.15531824859045 67.79084904122033 H 0.0 **** 0.06
7261 C 40.94817547841825 110.85396921886769 64.22772705442063 C 0.0 **** -0.24
7262 H 40.92801056034111 110.54919827759002 65.27409129043708 H 0.0 **** 0.06
7263 H 41.56253860843128 111.74760631661002 64.1214599019223 H 0.0 **** 0.06
7264 H 39.93410333999236 111.06736439219219 63.891270203287874 H 0.0 **** 0.06
7265 H 41.3694990078742 110.0485639274587 63.62396552598652 H 0.0 **** 0.06
7266 C 14.619160859329952 120.79303867220929 120.17561584645173 C 0.0 **** -0.24
7267 H 14.44546177244763 119.72292052524953 120.05802805281587 H 0.0 **** 0.06
7268 H 15.644753593718406 121.02825280273564 119.8906282487022 H 0.0 **** 0.06
7269 H 14.457717385632577 121.07475775850823 121.21695032781074 H 0.0 **** 0.06
7270 H 13.928639998991173 121.34480120338199 119.5388497599121 H 0.0 **** 0.06
7271 C 122.7240144231821 0.18618609067425496 119.21384632707857 C 0.0 **** -0.24
7272 H 123.19191018730942 0.8952816072879273 119.8971297148627 H 0.0 **** 0.06
7273 H 121.64316581737387 0.20908443855967107 119.35032704215054 H 0.0 **** 0.06
7274 H 123.09577409178723 -0.817775379111481 119.42232713581781 H 0.0 **** 0.06
7275 H 122.96657303064939 0.4574836762834593 118.18643015041849 H 0.0 **** 0.06
7276 C 124.06258835585999 81.24366193808909 88.34504884950474 C 0.0 **** -0.24
7277 H 123.15456562969007 81.09465402968539 87.76147675024838 H 0.0 **** 0.06
7278 H 124.9323934626317 81.14358555655863 87.69615684433516 H 0.0 **** 0.06
7279 H 124.11213124982618 80.49686516295374 89.13785220955782 H 0.0 **** 0.06
7280 H 124.05070737592598 82.24065386450475 88.78656900516799 H 0.0 **** 0.06
7281 C 92.07088608594536 27.335683683806835 134.52793873931938 C 0.0 **** -0.24
7282 H 92.25813274338022 28.17084687021601 135.20364744233532 H 0.0 **** 0.06
7283 H 92.20950057944486 26.397051784006287 135.06372340123804 H 0.0 **** 0.06
7284 H 92.76802157980289 27.38358630257597 133.69111646095774 H 0.0 **** 0.06
7285 H 91.04907482176014 27.394345618940676 134.15316203951625 H 0.0 **** 0.06
7286 C 75.8491388992849 104.54614356871753 86.79534220320333 C 0.0 **** -0.24
7287 H 76.00121993679767 104.44744548739075 87.86983002341765 H 0.0 **** 0.06
7288 H 74.80478418902004 104.34515628642032 86.55588776567024 H 0.0 **** 0.06
7289 H 76.48538793399588 103.83277547065586 86.27080219619808 H 0.0 **** 0.06
7290 H 76.10588298919218 105.55882529470229 86.4833177035544 H 0.0 **** 0.06
7291 C 19.81518970954425 44.9078619622849 112.59153799558749 C 0.0 **** -0.24
7292 H 20.54642417565666 45.640151151226775 112.93460764808535 H 0.0 **** 0.06
7293 H 20.065002858991534 44.593206713483035 111.57815872888474 H 0.0 **** 0.06
7294 H 18.82210804364756 45.35586175212794 112.59996433936269 H 0.0 **** 0.06
7295 H 19.83004467074918 44.04296249070066 113.25464755715052 H 0.0 **** 0.06
7296 C 4.2692933314327774 20.8954214690163 130.06224286452806 C 0.0 **** -0.24
7297 H 4.335035611877402 21.984065793859372 130.0682937656063 H 0.0 **** 0.06
7298 H 5.213032693553714 20.473020246945964 130.4062868367214 H 0.0 **** 0.06
7299 H 4.063051380222134 20.550031561820504 129.0493755908152 H 0.0 **** 0.06
7300 H 3.464246439650424 20.57756905698102 130.72586962277046 H 0.0 **** 0.06
7301 C 64.77290382511278 63.58735548866193 32.73845750726255 C 0.0 **** -0.24
7302 H 65.29117664291367 62.85900306312166 33.36204798682817 H 0.0 **** 0.06
7303 H 64.13883116253518 63.06590653116939 32.021265123499205 H 0.0 **** 0.06
7304 H 65.50451883136596 64.19348678301753 32.203618815183916 H 0.0 **** 0.06
7305 H 64.15788737766368 64.23158661069922 33.367115689885395 H 0.0 **** 0.06
7306 C 45.07101458631974 20.31181224818272 27.90690480865709 C 0.0 **** -0.24
7307 H 44.15360100839413 20.301177712683547 28.494368202078135 H 0.0 **** 0.06
7308 H 45.7930899354599 19.624372919107266 28.349616347811832 H 0.0 **** 0.06
7309 H 45.485924619339926 21.319593749876944 27.89823535381737 H 0.0 **** 0.06
7310 H 44.85177365109085 20.000146427090797 26.885162209394082 H 0.0 **** 0.06
7311 C 108.92563258197353 86.42587812430664 58.085605353897705 C 0.0 **** -0.24
7312 H 109.58098327847463 87.23661193200104 58.40631439682073 H 0.0 **** 0.06
7313 H 109.17039690630367 85.52020871594911 58.640048664555934 H 0.0 **** 0.06
7314 H 109.06501077407606 86.24863085410693 57.01892348373181 H 0.0 **** 0.06
7315 H 107.88836865674489 86.70137270913197 58.27569832560101 H 0.0 **** 0.06
7316 C 102.23056311683979 35.181710132354 59.364266894993534 C 0.0 **** -0.24
7317 H 103.01797892533796 35.261910065493566 58.61432795588047 H 0.0 **** 0.06
7318 H 101.42044191826244 34.56395457749494 58.974976716518086 H 0.0 **** 0.06
7319 H 101.85039580041871 36.1762680971886 59.598494024097135 H 0.0 **** 0.06
7320 H 102.63445988204865 34.72437842820375 60.26730851188063 H 0.0 **** 0.06
7321 C 125.70362609963041 30.73320867371484 43.53046516936584 C 0.0 **** -0.24
7322 H 126.22432152345752 31.675644232867285 43.70144638096778 H 0.0 **** 0.06
7323 H 124.8624265428902 30.652541565501622 44.21956982493958 H 0.0 **** 0.06
7324 H 126.39141090246753 29.903364531988586 43.697488808526856 H 0.0 **** 0.06
7325 H 125.33849062505436 30.700740557825384 42.50440575316645 H 0.0 **** 0.06
7326 C 30.405156633989122 127.15697537321988 10.40311645081357 C 0.0 **** -0.24
7327 H 30.07663827887697 126.28144672888968 10.961641532990456 H 0.0 **** 0.06
7328 H 30.86878230566606 126.83931226198058 9.46900807340171 H 0.0 **** 0.06
7329 H 31.12840601727416 127.71669305150226 10.99686096598029 H 0.0 **** 0.06
7330 H 29.546471736822326 127.79182278095828 10.184875589905317 H 0.0 **** 0.06
7331 C 1.5143195880425644 26.85181174553314 60.87700260075795 C 0.0 **** -0.24
7332 H 0.974051505597405 27.45679393473121 60.147692591418604 H 0.0 **** 0.06
7333 H 0.8044267751139671 26.265613042587155 61.4597781107347 H 0.0 **** 0.06
7334 H 2.0794922332075956 27.504516027259477 61.54199285849671 H 0.0 **** 0.06
7335 H 2.1988729389134285 26.181634427273764 60.356078248678614 H 0.0 **** 0.06
7336 C 9.275647784629996 85.09825280773276 88.17461453307044 C 0.0 **** -0.24
7337 H 9.588363884050011 85.27862140047907 89.20327769022809 H 0.0 **** 0.06
7338 H 8.233820916241825 84.77733111267474 88.16388501119413 H 0.0 **** 0.06
7339 H 9.901438376779765 84.32194672038918 87.73577515800984 H 0.0 **** 0.06
7340 H 9.379025350448615 86.01802247163874 87.5978711226941 H 0.0 **** 0.06
7341 C 59.511596693140675 44.34253402996675 89.47881874227708 C 0.0 **** -0.24
7342 H 58.67108733995843 44.9825277752745 89.21105003872127 H 0.0 **** 0.06
7343 H 59.140369189425584 43.36248164794752 89.78169267787705 H 0.0 **** 0.06
7344 H 60.062882680287785 44.7928761810232 90.30418215441549 H 0.0 **** 0.06
7345 H 60.17103039719049 44.23128965797165 88.6181446249657 H 0.0 **** 0.06
7346 C 57.951533461824795 83.78940376859673 91.77230437394208 C 0.0 **** -0.24
7347 H 57.495600665089654 83.19963171374206 92.56723219927018 H 0.0 **** 0.06
7348 H 57.47784833678965 83.54523911909376 90.82063628023973 H 0.0 **** 0.06
7349 H 59.016946894085066 83.56248770016501 91.71726394597628 H 0.0 **** 0.06
7350 H 57.81708087923468 84.850684483925 91.98396886988367 H 0.0 **** 0.06
7351 C 25.885367405360547 128.88126291856972 19.240940065635876 C 0.0 **** -0.24
7352 H 25.62766138963803 129.89517963559868 19.5461228597811 H 0.0 **** 0.06
7353 H 25.41793256766409 128.66065596918773 18.281020104534512 H 0.0 **** 0.06
7354 H 25.528564925721867 128.17479018145926 19.991149620472214 H 0.0 **** 0.06
7355 H 26.967860802615135 128.79528473675194 19.146447423105435 H 0.0 **** 0.06
7356 C 79.37433312792764 102.76772707595643 49.95072782680553 C 0.0 **** -0.24
7357 H 79.65621222146041 103.74117920964426 49.55104780234464 H 0.0 **** 0.06
7358 H 78.29731658497742 102.63323534305891 49.85358168194601 H 0.0 **** 0.06
7359 H 79.65502012061478 102.71083867641403 51.00237918484534 H 0.0 **** 0.06
7360 H 79.89024533262948 101.98378473315086 49.39529816028988 H 0.0 **** 0.06
7361 C 111.36421187503305 86.96804766636217 26.31289555302493 C 0.0 **** -0.24
7362 H 112.36770118770619 86.62483933133376 26.060762033577674 H 0.0 **** 0.06
7363 H 110.64706732225784 86.17180908594315 26.112284248583165 H 0.0 **** 0.06
7364 H 111.1174598279172 87.84209303879811 25.710455380982694 H 0.0 **** 0.06
7365 H 111.32605072544922 87.23287182660545 27.369352335626388 H 0.0 **** 0.06
7366 C 37.62604648262547 100.9187568770186 135.72114264607097 C 0.0 **** -0.24
7367 H 37.36397694201531 101.96158834417588 135.5414340875168 H 0.0 **** 0.06
7368 H 38.655998715470844 100.74443519236249 135.41151971140886 H 0.0 **** 0.06
7369 H 36.959478069466144 100.27372990680438 135.14807122668708 H 0.0 **** 0.06
7370 H 37.52247991179013 100.69619914185645 136.7832778046352 H 0.0 **** 0.06
7371 C 128.17162242183468 79.47445848393662 7.328461726987683 C 0.0 **** -0.24
7372 H 127.88397669722673 79.31543058089284 6.289167674382355 H 0.0 **** 0.06
7373 H 129.0307913105223 80.14427068806975 7.368543003834134 H 0.0 **** 0.06
7374 H 128.43393962367853 78.51916846113352 7.782633169663939 H 0.0 **** 0.06
7375 H 127.33781623343948 79.91866871650245 7.871071641525816 H 0.0 **** 0.06
7376 C 33.967942948058806 13.83819882857214 19.33035584900483 C 0.0 **** -0.24
7377 H 33.00185259093945 14.271954896061608 19.070836695305843 H 0.0 **** 0.06
7378 H 34.1924219086016 13.017501041756773 18.64907954714417 H 0.0 **** 0.06
7379 H 33.93418164357149 13.46402662245885 20.35384225467965 H 0.0 **** 0.06
7380 H 34.74149542902586 14.601109150717988 19.24887325663616 H 0.0 **** 0.06
7381 C 10.150374395515016 103.83533263248346 46.6497701496869 C 0.0 **** -0.24
7382 H 10.511550832869332 104.01464170707227 47.66175821021443 H 0.0 **** 0.06
7383 H 10.91949337781304 104.12149380020037 45.93264476287803 H 0.0 **** 0.06
7384 H 9.251656491527243 104.4283330186043 46.47519405577225 H 0.0 **** 0.06
7385 H 9.916554315425586 102.7773205968432 46.53035585168098 H 0.0 **** 0.06
7386 C 8.459718795351112 63.928587381323155 3.5367559670475828 C 0.0 **** -0.24
7387 H 7.819529030153646 64.80937026362326 3.4870705561193347 H 0.0 **** 0.06
7388 H 9.467842087153254 64.2277759340443 3.826142850581533 H 0.0 **** 0.06
7389 H 8.488861240793607 63.444863559841025 2.5604332532136596 H 0.0 **** 0.06
7390 H 8.062317127458872 63.23248530080531 4.275584689666317 H 0.0 **** 0.06
7391 C 132.27240407451455 101.5677965353415 131.19586353908704 C 0.0 **** -0.24
7392 H 132.91016229526457 102.39396912544788 131.5118815991308 H 0.0 **** 0.06
7393 H 131.47226053281062 101.4286455301351 131.92305153804614 H 0.0 **** 0.06
7394 H 132.8670150012412 100.65643268251631 131.12905890669003 H 0.0 **** 0.06
7395 H 131.84283352703125 101.79407840806837 130.21989697855918 H 0.0 **** 0.06
7396 C 114.87549257258675 96.2863832968153 112.33555518365216 C 0.0 **** -0.24
7397 H 114.54469073582479 95.42527805775387 111.7556673219276 H 0.0 **** 0.06
7398 H 114.12104304192997 97.0711096369019 112.28327209716986 H 0.0 **** 0.06
7399 H 115.81563572066105 96.65857072179176 111.92833110614194 H 0.0 **** 0.06
7400 H 115.0215261708619 95.99021098630897 113.37484352752779 H 0.0 **** 0.06
7401 C 29.23685698107738 0.3877712608213031 117.01924539750178 C 0.0 **** -0.24
7402 H 29.599142812477965 -0.5697037823167292 117.39284753366101 H 0.0 **** 0.06
7403 H 28.183692013401526 0.29676534682072386 116.74918680863323 H 0.0 **** 0.06
7404 H 29.814269654938983 0.676775522314486 116.1416155443097 H 0.0 **** 0.06
7405 H 29.34928876930246 1.1459757817792386 117.79515140089663 H 0.0 **** 0.06
7406 C 77.48414708382845 20.98435221501211 4.6283734074169445 C 0.0 **** -0.24
7407 H 76.9633298762837 20.167911360170763 4.126774075123421 H 0.0 **** 0.06
7408 H 76.95707521520666 21.920039449377413 4.439970277284175 H 0.0 **** 0.06
7409 H 78.50188620002831 21.055514751414194 4.244890633384529 H 0.0 **** 0.06
7410 H 77.51235018282301 20.792002068475853 5.700657905273346 H 0.0 **** 0.06
7411 C 113.83770617536703 19.474074499767198 16.022921199509653 C 0.0 **** -0.24
7412 H 114.29345573374536 19.350186727134826 17.00531074732379 H 0.0 **** 0.06
7413 H 114.59941650734083 19.361801894172686 15.251080986408226 H 0.0 **** 0.06
7414 H 113.39150946721676 20.465439828854073 15.952605587381868 H 0.0 **** 0.06
7415 H 113.06493664520522 18.717732072440754 15.88334872460689 H 0.0 **** 0.06
7416 C 51.49970747970143 18.714587379382614 91.86073626060953 C 0.0 **** -0.24
7417 H 51.894318346405 19.611475374626146 92.34023009739799 H 0.0 **** 0.06
7418 H 51.569567510071835 17.87378191035458 92.54993270727938 H 0.0 **** 0.06
7419 H 52.08016401955254 18.498447628472448 90.96339913868584 H 0.0 **** 0.06
7420 H 50.45669348169196 18.87735313292348 91.58943907064479 H 0.0 **** 0.06
7421 C 87.94543712743764 62.8823742101347 92.31448191869436 C 0.0 **** -0.24
7422 H 87.20125844929204 63.12821397806135 91.55689894071217 H 0.0 **** 0.06
7423 H 87.48240983430213 62.909746370603685 93.30099373510713 H 0.0 **** 0.06
7424 H 88.75831717466083 63.60861266035215 92.27381393254629 H 0.0 **** 0.06
7425 H 88.34045669008285 61.884263364424555 92.1249077871203 H 0.0 **** 0.06
7426 C 57.651314996222084 8.010596311876217 51.03866422603261 C 0.0 **** -0.24
7427 H 58.38333114464268 8.67358661025882 50.57591553486154 H 0.0 **** 0.06
7428 H 57.43684854574349 8.357011273652272 52.049634490561914 H 0.0 **** 0.06
7429 H 58.05416678551228 6.998065120772662 51.07901435253757 H 0.0 **** 0.06
7430 H 56.734575697973696 8.013200306851594 50.44952985082631 H 0.0 **** 0.06
7431 C 131.05810126618584 59.37995600837894 65.90319082485453 C 0.0 **** -0.24
7432 H 131.88658826963595 59.320698669511586 66.60984064493518 H 0.0 **** 0.06
7433 H 130.27076091888958 58.6908648372996 66.20819505813915 H 0.0 **** 0.06
7434 H 131.41109132013588 59.111318511321755 64.90695941007554 H 0.0 **** 0.06
7435 H 130.66691271998886 60.39749762835234 65.88777458341917 H 0.0 **** 0.06
7436 C 114.13670891118076 121.69497717328831 84.61203109945151 C 0.0 **** -0.24
7437 H 114.65004431680362 121.51982194606705 85.5577675812932 H 0.0 **** 0.06
7438 H 113.66951837687489 120.76923834184798 84.27689880030334 H 0.0 **** 0.06
7439 H 114.85661856884462 122.03083002171661 83.86517499148088 H 0.0 **** 0.06
7440 H 113.37286368906936 122.45974726291838 84.7500282546698 H 0.0 **** 0.06
7441 C 9.10993528054965 20.21729529187766 38.744562203686584 C 0.0 **** -0.24
7442 H 9.505972188173928 21.060761817731247 38.17880601821552 H 0.0 **** 0.06
7443 H 9.240948393809958 20.401393518380132 39.81044372868127 H 0.0 **** 0.06
7444 H 9.642430390589766 19.30883708172803 38.463607251351924 H 0.0 **** 0.06
7445 H 8.048248546399833 20.0987769165057 38.523374885036255 H 0.0 **** 0.06
7446 C 14.474881705423371 128.5001634581173 116.56223623228678 C 0.0 **** -0.24
7447 H 13.806167790537323 128.45061896789417 117.42051358873368 H 0.0 **** 0.06
7448 H 15.324990539439604 129.14047339141342 116.80037963731934 H 0.0 **** 0.06
7449 H 13.938277447107993 128.91155250383565 115.70679013508379 H 0.0 **** 0.06
7450 H 14.831182891797148 127.49856015566252 116.32003510872482 H 0.0 **** 0.06
7451 C 30.36822321445061 127.13147933153047 122.60890494484042 C 0.0 **** -0.24
7452 H 30.111625902948248 128.1071876570592 123.02150662255463 H 0.0 **** 0.06
7453 H 31.438958087742776 127.09040243160361 122.4102178549517 H 0.0 **** 0.06
7454 H 29.819545827365715 126.97478009010331 121.68026425620832 H 0.0 **** 0.06
7455 H 30.099970480709203 126.3535678941953 123.32407999371628 H 0.0 **** 0.06
7456 C 41.60717756434542 58.48858800888917 74.86618220116864 C 0.0 **** -0.24
7457 H 41.16388513655619 58.43510968152917 75.86025912401738 H 0.0 **** 0.06
7458 H 41.82336414150842 57.480594203443076 74.50964609152791 H 0.0 **** 0.06
7459 H 42.533247866206864 59.063180168500026 74.91225595282611 H 0.0 **** 0.06
7460 H 40.910763363399695 58.97486135667185 74.1836299921016 H 0.0 **** 0.06
7461 C 67.47266964660834 82.113827167768 26.940204437947955 C 0.0 **** -0.24
7462 H 68.03136706505786 83.02150493826224 27.170750249095164 H 0.0 **** 0.06
7463 H 67.72999074054158 81.77532860711099 25.93564347614722 H 0.0 **** 0.06
7464 H 66.40423923288658 82.32339256104062 26.990442405523595 H 0.0 **** 0.06
7465 H 67.72592854718916 81.33802986005333 27.66183763152246 H 0.0 **** 0.06
7466 C 96.38028861673922 108.26708582031101 105.58453398977156 C 0.0 **** -0.24
7467 H 96.64715000648374 108.8733571359841 106.4504041712895 H 0.0 **** 0.06
7468 H 96.08718109166165 108.91939544278328 104.76101576500474 H 0.0 **** 0.06
7469 H 95.5478635026164 107.61222153270258 105.8432254734708 H 0.0 **** 0.06
7470 H 97.23749827313623 107.66571021238856 105.28503448218032 H 0.0 **** 0.06
7471 C 119.66777106368014 92.47976696481018 28.6251948700409 C 0.0 **** -0.24
7472 H 118.65949356521307 92.55062041898049 29.032583275741672 H 0.0 **** 0.06
7473 H 120.32913681225456 93.15153535377073 29.17214151034341 H 0.0 **** 0.06
7474 H 119.65373167386312 92.7606104729087 27.57175388258878 H 0.0 **** 0.06
7475 H 120.02827824861099 91.45521555714669 28.7235112050883 H 0.0 **** 0.06
7476 C 118.9789731761166 64.03572938182612 86.43497263590997 C 0.0 **** -0.24
7477 H 119.08869191678727 64.9285964179287 87.05073828144226 H 0.0 **** 0.06
7478 H 119.35356833770805 64.23847552218155 85.43162696735264 H 0.0 **** 0.06
7479 H 117.92587593229607 63.7594167240681 86.38146957288646 H 0.0 **** 0.06
7480 H 119.54771901810682 63.217596577868136 86.87767905847595 H 0.0 **** 0.06
7481 C 106.043217629219 87.29230683809234 40.77998267969743 C 0.0 **** -0.24
7482 H 105.02483740692314 86.91255266936074 40.701023638222914 H 0.0 **** 0.06
7483 H 106.1035023541037 88.27038576504289 40.30369770101328 H 0.0 **** 0.06
7484 H 106.72672195036402 86.60261650172721 40.284026856918835 H 0.0 **** 0.06
7485 H 106.31703100910727 87.38137886281652 41.831549842078836 H 0.0 **** 0.06
7486 C 80.07293660460675 122.86278778806178 22.453630196299002 C 0.0 **** -0.24
7487 H 79.3037511879504 122.12605974897394 22.219778321479623 H 0.0 **** 0.06
7488 H 80.79539815902773 122.42503889385478 23.143525359362457 H 0.0 **** 0.06
7489 H 79.611720879263 123.73518266785419 22.915003389402443 H 0.0 **** 0.06
7490 H 80.5802069317599 123.16080942911196 21.536470481561878 H 0.0 **** 0.06
7491 C 95.74269335007187 20.21120460423998 133.78774018587427 C 0.0 **** -0.24
7492 H 95.67705536831926 19.902298231621046 132.74433921561558 H 0.0 **** 0.06
7493 H 96.30814738288456 19.46938654523467 134.35087402601445 H 0.0 **** 0.06
7494 H 94.7394469453871 20.297778668512706 134.20497590327997 H 0.0 **** 0.06
7495 H 96.24627775261666 21.176128383074854 133.84922944339158 H 0.0 **** 0.06
7496 C 64.9398396710912 5.020470989283371 82.17735652131648 C 0.0 **** -0.24
7497 H 64.35879572305825 5.403892359998963 83.01644654765114 H 0.0 **** 0.06
7498 H 64.313152322693 4.986832947255472 81.28611159694914 H 0.0 **** 0.06
7499 H 65.2952492173921 4.016950434343578 82.41040714366538 H 0.0 **** 0.06
7500 H 65.79305789100091 5.675386280184451 81.99813672580292 H 0.0 **** 0.06
7501 C 41.797154077839224 123.20599096823364 1.4186384791981936 C 0.0 **** -0.24
7502 H 42.50342681253535 122.48463834524384 1.008872409410003 H 0.0 **** 0.06
7503 H 40.78099043419277 122.89978390431457 1.170782209496565 H 0.0 **** 0.06
7504 H 41.99413743003029 124.18998007000157 0.9931645473546951 H 0.0 **** 0.06
7505 H 41.90967667329984 123.24894448303066 2.5024210998126364 H 0.0 **** 0.06
7506 C 117.55545641687206 4.89617319329858 14.002315182820894 C 0.0 **** -0.24
7507 H 116.92376397435598 4.185242260546147 13.468598980342222 H 0.0 **** 0.06
7508 H 116.97185936561058 5.387058290971169 14.782004497759488 H 0.0 **** 0.06
7509 H 117.93115735418255 5.6433469040222235 13.30405644727216 H 0.0 **** 0.06
7510 H 118.39398512518787 4.367076339988472 14.454591829366791 H 0.0 **** 0.06
7511 C 100.93140548063737 12.710582632501882 72.34048349065982 C 0.0 **** -0.24
7512 H 99.96853766870599 13.220528041755209 72.33325321649794 H 0.0 **** 0.06
7513 H 101.73372435452431 13.448687298451155 72.33528648321054 H 0.0 **** 0.06
7514 H 101.01366946660974 12.077622002483356 71.45692390667256 H 0.0 **** 0.06
7515 H 101.008550939474 12.094763353021314 73.23688143989673 H 0.0 **** 0.06
7516 C 1.7972178977603832 93.18203005705374 117.30753802443115 C 0.0 **** -0.24
7517 H 1.961609398105299 92.23592169410978 116.78994885141987 H 0.0 **** 0.06
7518 H 2.0167186129572947 94.0084012183126 116.63111491304744 H 0.0 **** 0.06
7519 H 2.454180940107676 93.2382918616442 118.17572593689772 H 0.0 **** 0.06
7520 H 0.7586146018264408 93.24311389961514 117.63226253708416 H 0.0 **** 0.06
7521 C 63.67518356762953 131.94182186521186 34.04227409124772 C 0.0 **** -0.24
7522 H 63.93836549410334 131.19991681533082 33.288578386189016 H 0.0 **** 0.06
7523 H 64.58172331717687 132.4149727684079 34.41891044255496 H 0.0 **** 0.06
7524 H 63.15108421241037 131.4543793726886 34.86526000422006 H 0.0 **** 0.06
7525 H 63.02851812841172 132.69813146283298 33.59729581313536 H 0.0 **** 0.06
7526 C 80.53365518329419 118.48667158588884 52.83762239155817 C 0.0 **** -0.24
7527 H 80.20805825515794 118.40337124255424 53.87489708593159 H 0.0 **** 0.06
7528 H 80.62978380508662 119.53877684117685 52.57117570263077 H 0.0 **** 0.06
7529 H 79.80048799853587 118.01088432197042 52.187153814121814 H 0.0 **** 0.06
7530 H 81.4983644569578 117.99263373154486 52.720205624559696 H 0.0 **** 0.06
7531 C 76.98143694138298 69.15375103183653 28.052192590076345 C 0.0 **** -0.24
7532 H 77.86255979302172 69.07695450287981 28.689186210321765 H 0.0 **** 0.06
7533 H 76.09309204855452 68.8932987605957 28.628471232199388 H 0.0 **** 0.06
7534 H 77.08144704325457 68.46882063961878 27.209595743730432 H 0.0 **** 0.06
7535 H 76.88859142224715 70.17396556275762 27.681887294472958 H 0.0 **** 0.06
7536 C 114.70695786114345 49.79097616460426 35.662821563391304 C 0.0 **** -0.24
7537 H 113.8611360624194 49.12874256240036 35.48078267582673 H 0.0 **** 0.06
7538 H 114.38285823847093 50.63299677107692 36.2752428570266 H 0.0 **** 0.06
7539 H 115.09229191179429 50.15980566022253 34.71306398232278 H 0.0 **** 0.06
7540 H 115.49044728729962 49.242673492939105 36.185145720076264 H 0.0 **** 0.06
7541 C 97.04844058072246 61.62378730523642 41.61267761030999 C 0.0 **** -0.24
7542 H 97.33975066751032 61.447392202464016 40.576857500508595 H 0.0 **** 0.06
7543 H 97.91494192512761 61.49749358425811 42.26079744432897 H 0.0 **** 0.06
7544 H 96.27334340784819 60.911992768916775 41.89714374871676 H 0.0 **** 0.06
7545 H 96.66402040176436 62.63867229834966 41.7127606957697 H 0.0 **** 0.06
7546 C 66.18834350017343 73.76772099730493 57.63097310411122 C 0.0 **** -0.24
7547 H 65.15053707662108 73.48247033720955 57.806469546485616 H 0.0 **** 0.06
7548 H 66.3027054169857 74.09827907658348 56.597562792973235 H 0.0 **** 0.06
7549 H 66.83703016027735 72.91078591658496 57.81271178739243 H 0.0 **** 0.06
7550 H 66.46050647947096 74.5801830323631 58.30458486743309 H 0.0 **** 0.06
7551 C 77.6781612394745 57.846262243164574 61.07050812807303 C 0.0 **** -0.24
7552 H 77.57891011629002 58.51742608959529 60.218420522766166 H 0.0 **** 0.06
7553 H 76.86995240056982 58.034414015525726 61.77751835570369 H 0.0 **** 0.06
7554 H 78.63696370335778 58.0179693707407 61.559306185768904 H 0.0 **** 0.06
7555 H 77.62679122048687 56.812957328927524 60.7258979365583 H 0.0 **** 0.06
7556 C 8.04405260864246 23.530364600389788 106.82197363715822 C 0.0 **** -0.24
7557 H 7.379000345204986 22.690348345145537 106.6213390362454 H 0.0 **** 0.06
7558 H 8.167781917726813 23.645577211456725 107.89865425891746 H 0.0 **** 0.06
7559 H 7.613954060585058 24.44118699731473 106.40584764011905 H 0.0 **** 0.06
7560 H 9.01366650282705 23.343493567132555 106.362133336753 H 0.0 **** 0.06
7561 C 15.023409398432705 11.045723214456796 52.70606318535479 C 0.0 **** -0.24
7562 H 14.137526354447914 11.559420236080062 52.33477274468851 H 0.0 **** 0.06
7563 H 15.720078601443959 10.88143674310064 51.882326475303046 H 0.0 **** 0.06
7564 H 14.734523588797515 10.086209044453248 53.13517694154797 H 0.0 **** 0.06
7565 H 15.50340221433089 11.656186836064727 53.470842315548964 H 0.0 **** 0.06
7566 C 93.38719902063843 72.2720655902389 7.842818716207603 C 0.0 **** -0.24
7567 H 93.14404212703988 72.57573649820995 6.8241240554255 H 0.0 **** 0.06
7568 H 94.10331690116197 71.45063903432856 7.816085505269143 H 0.0 **** 0.06
7569 H 92.479779755643 71.94675745444599 8.350537049205286 H 0.0 **** 0.06
7570 H 93.82135600110652 73.11563744734508 8.37861742616036 H 0.0 **** 0.06
7571 C 127.42050583527191 3.368006121046818 65.93676440147712 C 0.0 **** -0.24
7572 H 126.3382559004339 3.496273628965696 65.91983566129346 H 0.0 **** 0.06
7573 H 127.66015979029072 2.3062202069864384 65.99531970294382 H 0.0 **** 0.06
7574 H 127.8327880129309 3.883089925941931 66.80377829451622 H 0.0 **** 0.06
7575 H 127.84921978162774 3.787597318823117 65.02609833202797 H 0.0 **** 0.06
7576 C 107.66770385678927 98.23992188554767 133.2743221029976 C 0.0 **** -0.24
7577 H 106.89782830150999 98.94180897173774 132.9551761050274 H 0.0 **** 0.06
7578 H 108.49484258856943 98.26036368277737 132.56343828832718 H 0.0 **** 0.06
7579 H 107.24821919292286 97.23470474111338 133.31545812161585 H 0.0 **** 0.06
7580 H 108.03049742274219 98.52338352664248 134.26205656356194 H 0.0 **** 0.06
7581 C 21.370257528372804 91.73217832713851 6.021740185010742 C 0.0 **** -0.24
7582 H 21.78821766306362 91.77411442927026 7.027506930828281 H 0.0 **** 0.06
7583 H 20.563504880342634 90.99973863346627 5.9935564605553395 H 0.0 **** 0.06
7584 H 22.150084405629855 91.44251491328869 5.316900313876204 H 0.0 **** 0.06
7585 H 20.981304676997695 92.71349531780504 5.749584501784511 H 0.0 **** 0.06
7586 C 49.47466254240368 96.65031569048733 122.53619959909666 C 0.0 **** -0.24
7587 H 48.79724924294038 96.43628135337912 123.36274758671566 H 0.0 **** 0.06
7588 H 49.11341082244448 97.52094763322617 121.9871837876263 H 0.0 **** 0.06
7589 H 49.515772079504586 95.79000603926517 121.86821055086315 H 0.0 **** 0.06
7590 H 50.47145385786354 96.85557448265808 122.92681062392077 H 0.0 **** 0.06
7591 C 54.46648317876084 61.688254057220036 45.058659686973584 C 0.0 **** -0.24
7592 H 54.75149075441156 61.75864452694634 46.108937735618156 H 0.0 **** 0.06
7593 H 55.235730167791104 62.15429263740765 44.4424493342685 H 0.0 **** 0.06
7594 H 53.51652864705338 62.20024541357151 44.90510089760443 H 0.0 **** 0.06
7595 H 54.36372854168789 60.6400596684295 44.77975106142338 H 0.0 **** 0.06
7596 C 60.67755520419233 69.9799203978299 122.7274021129615 C 0.0 **** -0.24
7597 H 60.23736818918346 70.78172724289759 122.1346878220188 H 0.0 **** 0.06
7598 H 60.32254594212014 69.01812495644133 122.35662585200873 H 0.0 **** 0.06
7599 H 60.386824469660894 70.09722756051065 123.77003081213104 H 0.0 **** 0.06
7600 H 61.763481651700346 70.02247128800794 122.64526673776743 H 0.0 **** 0.06
7601 C 5.515967431798174 57.99865356368264 96.62919979230367 C 0.0 **** -0.24
7602 H 5.350661406024869 58.06661283493156 97.70489285332302 H 0.0 **** 0.06
7603 H 4.6503169095816475 57.53495299268957 96.15655298969841 H 0.0 **** 0.06
7604 H 6.40246452725296 57.39480941208319 96.43664284460613 H 0.0 **** 0.06
7605 H 5.6617121486127076 58.99847128589715 96.22121936913844 H 0.0 **** 0.06
7606 C 51.99480248083165 106.63605952536759 76.60607783755759 C 0.0 **** -0.24
7607 H 52.319803443185165 107.60279203737785 76.22416738789805 H 0.0 **** 0.06
7608 H 50.90472251953868 106.60966307081522 76.64776821812062 H 0.0 **** 0.06
7609 H 52.399950796588755 106.48500961298178 77.60687294590633 H 0.0 **** 0.06
7610 H 52.352837199321826 105.84530905606395 75.94700660786852 H 0.0 **** 0.06
7611 C 25.44190756030838 27.186767759384423 68.08466725121784 C 0.0 **** -0.24
7612 H 26.466406548968962 27.232919337364564 68.45353701359147 H 0.0 **** 0.06
7613 H 25.381044217556024 27.688563916690867 67.117804057679 H 0.0 **** 0.06
7614 H 24.778734891624623 27.682517648105375 68.79386548931413 H 0.0 **** 0.06
7615 H 25.14238097243347 26.14531861083786 67.97320203851473 H 0.0 **** 0.06
7616 C 10.660466613067484 113.55085910268608 75.01269071557397 C 0.0 **** -0.24
7617 H 10.949585685850764 112.50022684798884 74.99427678104004 H 0.0 **** 0.06
7618 H 9.876267079602883 113.69857584330836 75.75491770173844 H 0.0 **** 0.06
7619 H 10.290968658289557 113.84296070955807 74.02952542358099 H 0.0 **** 0.06
7620 H 11.525733294517835 114.16210259107672 75.27088457662836 H 0.0 **** 0.06
7621 C 97.12189361460439 2.5724168052884373 128.55278009704026 C 0.0 **** -0.24
7622 H 96.71173446017914 1.6376038999847289 128.1693698616256 H 0.0 **** 0.06
7623 H 96.38018970498865 3.365466164507069 128.44455713501577 H 0.0 **** 0.06
7624 H 98.01789269567176 2.8333835698421233 127.99151192926753 H 0.0 **** 0.06
7625 H 97.37410990677637 2.453318403152039 129.60650851376366 H 0.0 **** 0.06
7626 C 131.16255761906658 84.41510526224516 19.041731375474 C 0.0 **** -0.24
7627 H 130.7821675097104 85.33987600804568 19.47576651539032 H 0.0 **** 0.06
7628 H 132.2367775831984 84.50597295637249 18.878349523378006 H 0.0 **** 0.06
7629 H 130.66413885133207 84.22833020813977 18.090898666781015 H 0.0 **** 0.06
7630 H 130.96650731750424 83.58684970220446 19.723016257927952 H 0.0 **** 0.06
7631 C 47.23320362176844 62.09367946231768 77.8004168154839 C 0.0 **** -0.24
7632 H 46.75329359562977 63.05053541161733 77.59711634828776 H 0.0 **** 0.06
7633 H 46.5299708072352 61.43413938483138 78.3094812349703 H 0.0 **** 0.06
7634 H 48.106679320489434 62.25226451051378 78.43298622279183 H 0.0 **** 0.06
7635 H 47.54457906004137 61.636751179525106 76.85984143302552 H 0.0 **** 0.06
7636 C 124.75602191713345 30.399878900482804 35.963055762500204 C 0.0 **** -0.24
7637 H 124.97364205799684 29.34252861631606 35.81498188121505 H 0.0 **** 0.06
7638 H 124.58745091458303 30.591476823845824 37.02226210012202 H 0.0 **** 0.06
7639 H 123.86288185475675 30.668958822068134 35.39858971792181 H 0.0 **** 0.06
7640 H 125.59906889202983 30.996105962214244 35.61446268503073 H 0.0 **** 0.06
7641 C 69.92007531845502 9.302919838190896 42.57833239754757 C 0.0 **** -0.24
7642 H 69.77013097176132 8.341786540156246 42.08735734547963 H 0.0 **** 0.06
7643 H 69.86158707357345 9.17201378454596 43.659296705783845 H 0.0 **** 0.06
7644 H 69.14822344891365 10.00112595946634 42.254466735418305 H 0.0 **** 0.06
7645 H 70.90105770140269 9.69792951494826 42.311849677083444 H 0.0 **** 0.06
7646 C 55.79256743173444 64.9073276984006 51.537804402600344 C 0.0 **** -0.24
7647 H 55.979167428410534 64.03892874063865 50.90673569739988 H 0.0 **** 0.06
7648 H 56.284464349062574 65.78099576684059 51.108346995593294 H 0.0 **** 0.06
7649 H 56.188032104918676 64.7223339858721 52.53680245267637 H 0.0 **** 0.06
7650 H 54.719855059264745 65.08770181542803 51.59919947858913 H 0.0 **** 0.06
7651 C 56.865490743495144 88.87478287808511 129.0385326720878 C 0.0 **** -0.24
7652 H 56.49253447825434 89.53937011030496 128.2586586198679 H 0.0 **** 0.06
7653 H 56.60146212929337 89.27778733022092 130.01564183026218 H 0.0 **** 0.06
7654 H 57.94914559726489 88.79427153337286 128.9582948842431 H 0.0 **** 0.06
7655 H 56.418646992195406 87.88806505584489 128.9179522010089 H 0.0 **** 0.06
7656 C 76.50519007181742 25.412555220406233 64.51434724117019 C 0.0 **** -0.24
7657 H 77.11453961636728 25.846618333530685 63.72122276235643 H 0.0 **** 0.06
7658 H 75.93673948528205 24.571329674050304 64.1159157671525 H 0.0 **** 0.06
7659 H 75.81755361559001 26.166250707997506 64.89813921905 H 0.0 **** 0.06
7660 H 77.1516303735777 25.06595617954764 65.32013447500663 H 0.0 **** 0.06
7661 C 96.47178072135159 133.14391201485353 100.60731395007032 C 0.0 **** -0.24
7662 H 96.24415026818059 132.80579481440554 101.61816368698277 H 0.0 **** 0.06
7663 H 95.57552615052109 133.06978624204328 99.98985685456074 H 0.0 **** 0.06
7664 H 97.25844274505067 132.51898709977377 100.18401170141517 H 0.0 **** 0.06
7665 H 96.80704405363963 134.18041222719307 100.63806862641276 H 0.0 **** 0.06
7666 C 31.001706958204267 24.841239388669806 91.36771035266871 C 0.0 **** -0.24
7667 H 30.315140223715616 25.477939079415307 90.80961207203427 H 0.0 **** 0.06
7668 H 30.66161774219418 24.758251966838372 92.40036397938029 H 0.0 **** 0.06
7669 H 31.99976367281502 25.27995180299237 91.34826006420137 H 0.0 **** 0.06
7670 H 31.03060919773654 23.85101591504599 90.9136363833727 H 0.0 **** 0.06
7671 C 114.23019013089049 128.61932462489565 128.26073879796033 C 0.0 **** -0.24
7672 H 113.28314143466628 128.30440680153612 127.8203189036021 H 0.0 **** 0.06
7673 H 114.08004629517598 129.54156557864553 128.82137814777724 H 0.0 **** 0.06
7674 H 114.95966066376798 128.78869174771444 127.46892280512441 H 0.0 **** 0.06
7675 H 114.59509151741833 127.84006687222194 128.9304771303777 H 0.0 **** 0.06
7676 C 8.126089542810377 115.83346892678122 37.74309605272955 C 0.0 **** -0.24
7677 H 8.769674489174946 115.90605841865812 36.867019462265915 H 0.0 **** 0.06
7678 H 8.627899082487318 116.2819508806804 38.6004531431435 H 0.0 **** 0.06
7679 H 7.914810362523724 114.78506163553214 37.95258901702932 H 0.0 **** 0.06
7680 H 7.191481489586039 116.36146648861512 37.55175745333139 H 0.0 **** 0.06
7681 C 104.52569744182473 27.106085321352296 1.6366411546673874 C 0.0 **** -0.24
7682 H 104.52509492156504 26.486416027412453 0.7400489094948739 H 0.0 **** 0.06
7683 H 103.56660526184668 27.00909264171598 2.145670313883727 H 0.0 **** 0.06
7684 H 104.68728446922948 28.146760036999574 1.358133049291439 H 0.0 **** 0.06
7685 H 105.32517835312176 26.779449898548123 2.3022263634790363 H 0.0 **** 0.06
7686 C 115.49547564851073 16.35510995119934 39.03168518440401 C 0.0 **** -0.24
7687 H 115.32701192873611 16.082064024274842 37.98969334874727 H 0.0 **** 0.06
7688 H 116.28533698165583 15.728323241211726 39.44782655520126 H 0.0 **** 0.06
7689 H 114.57630143365256 16.206987435996055 39.598541909858284 H 0.0 **** 0.06
7690 H 115.79301304723896 17.401644273420175 39.08896887814245 H 0.0 **** 0.06
7691 C 111.6786049321829 58.83365682000223 15.122288296628113 C 0.0 **** -0.24
7692 H 112.51447025810825 58.79586545774899 14.423285392781054 H 0.0 **** 0.06
7693 H 112.04688659016546 58.683779748101585 16.137655023544454 H 0.0 **** 0.06
7694 H 110.9632699127553 58.04904803295872 14.875213540512306 H 0.0 **** 0.06
7695 H 111.19062747327507 59.804853390505 15.052630600838782 H 0.0 **** 0.06
7696 C 116.24779874417175 16.583992183714287 87.28191519836396 C 0.0 **** -0.24
7697 H 116.28157122141002 16.203304256140115 86.26118743038616 H 0.0 **** 0.06
7698 H 115.72754197711811 17.542444229212606 87.2951703176627 H 0.0 **** 0.06
7699 H 117.26407225087411 16.71749627124086 87.65321009226123 H 0.0 **** 0.06
7700 H 115.71959892610494 15.874181293185757 87.91750111166296 H 0.0 **** 0.06
7701 C 115.94347147129616 128.3916808357975 51.51520175357052 C 0.0 **** -0.24
7702 H 115.72250942790578 127.33427054643836 51.65710055419643 H 0.0 **** 0.06
7703 H 115.17059210766118 128.99244187384303 51.99496288301782 H 0.0 **** 0.06
7704 H 115.96880758810582 128.61821265005022 50.4490336117596 H 0.0 **** 0.06
7705 H 116.9121775087199 128.62377750501298 51.95868890097711 H 0.0 **** 0.06
7706 C 19.269931197520336 8.928951528460289 65.75897994600925 C 0.0 **** -0.24
7707 H 18.445366764863664 9.527718335704492 66.14370295252579 H 0.0 **** 0.06
7708 H 18.874008489078903 8.103413238305507 65.16720564859224 H 0.0 **** 0.06
7709 H 19.852146660638795 8.534401274765457 66.591962138062 H 0.0 **** 0.06
7710 H 19.90968488765776 9.551757880132755 65.13227458388366 H 0.0 **** 0.06
7711 C 136.0824190502626 5.106801831129985 124.29073329342827 C 0.0 **** -0.24
7712 H 137.05743169104642 4.918466538065218 123.8421062809278 H 0.0 **** 0.06
7713 H 135.5939277507254 5.928239567841274 123.76673105075564 H 0.0 **** 0.06
7714 H 136.2113193921713 5.3710806331169465 125.3411777524396 H 0.0 **** 0.06
7715 H 135.46776899061345 4.209723490193369 124.2144389396643 H 0.0 **** 0.06
7716 C 28.18508742123501 63.16081054161782 40.51218108443584 C 0.0 **** -0.24
7717 H 27.6792727258169 63.720547036271 39.72587606658806 H 0.0 **** 0.06
7718 H 27.92263694687358 62.10555002787021 40.43363757638518 H 0.0 **** 0.06
7719 H 27.873711537948395 63.5408933708386 41.48596865737218 H 0.0 **** 0.06
7720 H 29.26314247154903 63.276951400259236 40.4049727415797 H 0.0 **** 0.06
7721 C 16.624134408393786 60.45328931909705 95.25131069658187 C 0.0 **** -0.24
7722 H 15.966511696056145 60.678296278331004 94.41223724701962 H 0.0 **** 0.06
7723 H 16.130934576585872 60.72920059893886 96.18382825311909 H 0.0 **** 0.06
7724 H 17.55017201391479 61.018958963568735 95.14811538762032 H 0.0 **** 0.06
7725 H 16.848919347018196 59.386701435549526 95.2610618985683 H 0.0 **** 0.06
7726 C 39.197760326582106 56.460996063216555 99.17819910119897 C 0.0 **** -0.24
7727 H 38.4496511444247 56.184279254269995 98.43571038445413 H 0.0 **** 0.06
7728 H 39.24539349302915 57.547313674348146 99.25853728513636 H 0.0 **** 0.06
7729 H 40.17081633887908 56.075790033865644 98.87500554997882 H 0.0 **** 0.06
7730 H 38.9242271175611 56.0360051906718 100.14440117350355 H 0.0 **** 0.06
7731 C 117.61305923473023 24.35248236723035 84.85807941157034 C 0.0 **** -0.24
7732 H 118.39255448244006 23.9862356639334 84.19140746462143 H 0.0 **** 0.06
7733 H 117.37842348353641 25.387248559712233 84.60743010078485 H 0.0 **** 0.06
7734 H 117.96143256565031 24.298451282730326 85.88934887783327 H 0.0 **** 0.06
7735 H 116.71881319910017 23.739366274069184 84.74383068802202 H 0.0 **** 0.06
7736 C 79.11301512079604 99.69464263143078 77.64882853067647 C 0.0 **** -0.24
7737 H 78.59751631835542 99.69727109341278 78.60916499910961 H 0.0 **** 0.06
7738 H 79.57030955892566 98.71911932887429 77.48517915230647 H 0.0 **** 0.06
7739 H 79.88576375679713 100.46378372031711 77.64961680209298 H 0.0 **** 0.06
7740 H 78.396739701022 99.89897678880641 76.8529861216238 H 0.0 **** 0.06
7741 C 33.9290587346139 27.870849428048466 72.09993773393163 C 0.0 **** -0.24
7742 H 33.47499565696296 27.23921122358523 72.86366541887348 H 0.0 **** 0.06
7743 H 34.997247166813764 27.656833811264534 72.03938228931959 H 0.0 **** 0.06
7744 H 33.783128837753736 28.91928011642765 72.36130462499474 H 0.0 **** 0.06
7745 H 33.46281878800852 27.66766070773729 71.13547946506003 H 0.0 **** 0.06
7746 C 133.67833906540415 62.009787896959324 73.0161658870561 C 0.0 **** -0.24
7747 H 134.72698450080657 62.10236181685494 72.73163657021365 H 0.0 **** 0.06
7748 H 133.56182790121414 62.274133570630596 74.06709098703232 H 0.0 **** 0.06
7749 H 133.34905703182915 60.9832957733998 72.86017791421943 H 0.0 **** 0.06
7750 H 133.07641631083715 62.681234280587034 72.40360746035992 H 0.0 **** 0.06
7751 C 124.62005601964754 26.291835287342508 29.52920827084324 C 0.0 **** -0.24
7752 H 125.47329995606003 26.622826381314894 30.12137357623726 H 0.0 **** 0.06
7753 H 124.97607601759847 25.770286588579665 28.64024661808827 H 0.0 **** 0.06
7754 H 124.02752880377304 27.15657503042314 29.23193786071147 H 0.0 **** 0.06
7755 H 124.00582693040863 25.616787457105374 30.12425622340851 H 0.0 **** 0.06
7756 C 92.34998554385648 8.594197339104795 65.62756772435128 C 0.0 **** -0.24
7757 H 92.04607155758788 7.5486187991011775 65.56055310239293 H 0.0 **** 0.06
7758 H 93.21456628839175 8.762274975113485 64.98573434437435 H 0.0 **** 0.06
7759 H 92.60989594128576 8.830997953698642 66.65848141506234 H 0.0 **** 0.06
7760 H 91.52700205133064 9.232013429336234 65.30352927800077 H 0.0 **** 0.06
7761 C 81.83345716384554 44.69518468128689 23.48630721063376 C 0.0 **** -0.24
7762 H 82.75995997605793 44.61035049471769 22.918893132025914 H 0.0 **** 0.06
7763 H 82.04068120425143 44.54458119439127 24.545999557676424 H 0.0 **** 0.06
7764 H 81.12617390777598 43.93996175761299 23.143459145777577 H 0.0 **** 0.06
7765 H 81.406425025577 45.68664163772826 23.33701656654607 H 0.0 **** 0.06
7766 C 109.05937660137359 81.07806977805821 28.798543647840035 C 0.0 **** -0.24
7767 H 109.81491889252192 80.30914542425342 28.63464341709806 H 0.0 **** 0.06
7768 H 108.07062511329158 80.62032260488076 28.80028682534777 H 0.0 **** 0.06
7769 H 109.1163893964564 81.81886756760048 27.99953592157783 H 0.0 **** 0.06
7770 H 109.23853272426861 81.56387080529483 29.757420324756552 H 0.0 **** 0.06
7771 C 25.020421858220004 95.80320812219712 39.64326206740604 C 0.0 **** -0.24
7772 H 25.47220004753035 96.24170063115164 40.5335574627303 H 0.0 **** 0.06
7773 H 24.67150751469549 94.79605921003247 39.87232741334882 H 0.0 **** 0.06
7774 H 25.759996403585717 95.75973045248176 38.84469636890776 H 0.0 **** 0.06
7775 H 24.177255949485613 96.4164478626251 39.32515935349146 H 0.0 **** 0.06
7776 C 74.47709524858146 56.69946106342769 68.35312604359565 C 0.0 **** -0.24
7777 H 74.37748923320945 56.307255249887845 69.3649354503959 H 0.0 **** 0.06
7778 H 75.10339996714947 57.5917411273565 68.36933640508988 H 0.0 **** 0.06
7779 H 73.4904806008724 56.954057887672434 67.96364287280197 H 0.0 **** 0.06
7780 H 74.93532239338236 55.94440544467656 67.71457460045364 H 0.0 **** 0.06
7781 C 66.352377042705 108.85781807891004 50.629156265511 C 0.0 **** -0.24
7782 H 65.78267892092197 109.25796520061715 49.791730272722305 H 0.0 **** 0.06
7783 H 67.15808148422013 109.54718878215397 50.882883440200715 H 0.0 **** 0.06
7784 H 66.7753545925784 107.89145345123023 50.35224558861559 H 0.0 **** 0.06
7785 H 65.69471603132618 108.73317084308167 51.48990022346268 H 0.0 **** 0.06
7786 C 24.279443648387655 102.96479565137778 88.60615545345551 C 0.0 **** -0.24
7787 H 25.26445094146723 102.64549960263778 88.94609472930406 H 0.0 **** 0.06
7788 H 23.588059949266892 102.97087254621894 89.44992366891069 H 0.0 **** 0.06
7789 H 23.91756165457295 102.27347606165074 87.84437086448466 H 0.0 **** 0.06
7790 H 24.34710234285933 103.96771422986562 88.18435728049872 H 0.0 **** 0.06
7791 C 101.48830646946104 5.263826103089173 96.51124129716463 C 0.0 **** -0.24
7792 H 101.36115551554457 5.274494583218029 97.59299164008664 H 0.0 **** 0.06
7793 H 102.19157462321044 4.477998040491457 96.23547105852164 H 0.0 **** 0.06
7794 H 101.87332653242731 6.227990789895671 96.18091567425721 H 0.0 **** 0.06
7795 H 100.52600691821402 5.07462243026572 96.03480595164774 H 0.0 **** 0.06
7796 C 62.277973555356056 97.27467414212704 29.550913686213704 C 0.0 **** -0.24
7797 H 62.108101308546 97.32899025799344 30.625659323445518 H 0.0 **** 0.06
7798 H 63.3508719449799 97.27004684738662 29.35279301268295 H 0.0 **** 0.06
7799 H 61.82292516283371 98.13841735815481 29.067137254947966 H 0.0 **** 0.06
7800 H 61.831980729943666 96.36142388159146 29.158230126113295 H 0.0 **** 0.06
7801 C 53.72106728603978 122.44731746949253 47.444679582368025 C 0.0 **** -0.24
7802 H 54.29856018838311 122.09613573011666 48.299867514224644 H 0.0 **** 0.06
7803 H 52.74080589912755 121.96891452952013 47.44739626634926 H 0.0 **** 0.06
7804 H 54.246735044017896 122.19655733246111 46.523697067911186 H 0.0 **** 0.06
7805 H 53.597612547214084 123.52900134436629 47.51074058177832 H 0.0 **** 0.06
7806 C 73.77525841381919 90.41459391446105 112.06178221880754 C 0.0 **** -0.24
7807 H 74.56956429275255 90.94208614074763 111.5343325530161 H 0.0 **** 0.06
7808 H 73.26301921989241 91.10565414299502 112.73137525948403 H 0.0 **** 0.06
7809 H 74.20542044623386 89.59759898897873 112.64223208015667 H 0.0 **** 0.06
7810 H 73.06391776084507 90.01283054171843 111.3406617721273 H 0.0 **** 0.06
7811 C 89.77825479514966 133.7666217992329 28.774697993200277 C 0.0 **** -0.24
7812 H 89.1320441984234 133.06894479353699 28.240878006698978 H 0.0 **** 0.06
7813 H 90.77890632262155 133.73744683369753 28.34213532989432 H 0.0 **** 0.06
7814 H 89.82920107351734 133.48255218597168 29.82607519496628 H 0.0 **** 0.06
7815 H 89.37408515021438 134.77415773601788 28.689467794098476 H 0.0 **** 0.06
7816 C 106.22747770805668 34.49139077570754 11.837107228681205 C 0.0 **** -0.24
7817 H 105.51763867546657 33.6960995406526 12.066919131602937 H 0.0 **** 0.06
7818 H 105.75345371171535 35.45877782511451 11.999093487073981 H 0.0 **** 0.06
7819 H 106.53978961792428 34.40837795142954 10.79599714092777 H 0.0 **** 0.06
7820 H 107.09872400627367 34.39860426424491 12.485981362445216 H 0.0 **** 0.06
7821 C 64.67861581623372 86.6973935940075 71.12725160865872 C 0.0 **** -0.24
7822 H 64.4234776891248 87.72206047426468 70.85675135478924 H 0.0 **** 0.06
7823 H 65.69611766747859 86.66740086856738 71.51700086333605 H 0.0 **** 0.06
7824 H 64.60809924259019 86.06149586896869 70.24472536990532 H 0.0 **** 0.06
7825 H 63.9860606152121 86.33977435331468 71.88848927411298 H 0.0 **** 0.06
7826 C 120.6157368492704 132.0096177811679 19.886404250659155 C 0.0 **** -0.24
7827 H 120.21214101658467 131.7362446476052 18.912042128741405 H 0.0 **** 0.06
7828 H 120.32330667654173 131.26151078569376 20.6241959860196 H 0.0 **** 0.06
7829 H 120.22485799685467 132.98337636031331 20.181194013745085 H 0.0 **** 0.06
7830 H 121.7037135961134 132.05804445218124 19.82877981180863 H 0.0 **** 0.06
7831 C 16.365359274576065 102.48809249551641 120.07811484269715 C 0.0 **** -0.24
7832 H 16.561958702186644 101.8113375763989 119.24727343017108 H 0.0 **** 0.06
7833 H 15.320017214788919 102.79589506961327 120.05614648133297 H 0.0 **** 0.06
7834 H 17.005344513930538 103.36640329291953 119.99104520898675 H 0.0 **** 0.06
7835 H 16.574526105732133 101.97863214089193 121.01934409061306 H 0.0 **** 0.06
7836 C 114.93422266612163 74.61705217567165 94.63249557051336 C 0.0 **** -0.24
7837 H 115.81014783001638 75.26459494664861 94.58097295177532 H 0.0 **** 0.06
7838 H 115.25361213459746 73.5753026779545 94.65416111012598 H 0.0 **** 0.06
7839 H 114.30502680516838 74.78664768813586 93.75913598802032 H 0.0 **** 0.06
7840 H 114.36852337197149 74.8434075486166 95.53704721568641 H 0.0 **** 0.06
7841 C 48.008279808315194 110.84576210558714 45.979950306555 C 0.0 **** -0.24
7842 H 47.69451795727764 109.82570689686224 46.1999432592695 H 0.0 **** 0.06
7843 H 47.24127290237698 111.34046007424024 45.383901317744346 H 0.0 **** 0.06
7844 H 48.94525215697314 110.82576765498163 45.42351603915796 H 0.0 **** 0.06
7845 H 48.15194164393495 111.39014959687859 46.91266920593574 H 0.0 **** 0.06
7846 C 3.0304835436726307 110.34759192436684 77.83217112910371 C 0.0 **** -0.24
7847 H 2.846969411818833 109.56466743227233 77.09660886369801 H 0.0 **** 0.06
7848 H 3.3814698873108 111.24654041142682 77.32497758955986 H 0.0 **** 0.06
7849 H 3.788439308784632 110.01083526322276 78.53962012677242 H 0.0 **** 0.06
7850 H 2.1072228037664047 110.56784679087346 78.36644108085864 H 0.0 **** 0.06
7851 C 43.76505719125598 135.39691655796037 6.953940316052233 C 0.0 **** -0.24
7852 H 43.430143459649045 135.6832103803033 7.950731008191227 H 0.0 **** 0.06
7853 H 43.525814306300816 134.34822116422467 6.777844118828959 H 0.0 **** 0.06
7854 H 44.842139838369945 135.54282158524575 6.876346989432758 H 0.0 **** 0.06
7855 H 43.26048935034707 136.01486459260434 6.21039432677442 H 0.0 **** 0.06
7856 C 107.46014848015184 4.740581784697781 102.55689140632234 C 0.0 **** -0.24
7857 H 107.26108278426955 4.4425625035370615 101.52835344561156 H 0.0 **** 0.06
7858 H 108.28624472242558 5.452459253171867 102.57512864070954 H 0.0 **** 0.06
7859 H 107.72425521202021 3.862404591722168 103.14550119356 H 0.0 **** 0.06
7860 H 106.56998607218344 5.2066059726716105 102.97895939525255 H 0.0 **** 0.06
7861 C 55.841662922227286 21.594173152653568 82.37152162549876 C 0.0 **** -0.24
7862 H 56.72461312010233 20.961020762754117 82.27853717160812 H 0.0 **** 0.06
7863 H 56.10760902034856 22.62591371027591 82.1413278782872 H 0.0 **** 0.06
7864 H 55.459071744951245 21.535021068034098 83.39072038372359 H 0.0 **** 0.06
7865 H 55.075822425064715 21.251611723660773 81.6753714406583 H 0.0 **** 0.06
7866 C 88.10419064031575 99.69577449313815 65.82040061793698 C 0.0 **** -0.24
7867 H 87.7430087820722 100.70841389548787 65.64105412150026 H 0.0 **** 0.06
7868 H 87.9094884698359 99.08040006516688 64.94129681232982 H 0.0 **** 0.06
7869 H 87.58743326999215 99.27304204648618 66.68190172205249 H 0.0 **** 0.06
7870 H 89.17655142706275 99.72202683940077 66.01620730886295 H 0.0 **** 0.06
7871 C 98.21183716566213 33.17151086835875 71.41135615891488 C 0.0 **** -0.24
7872 H 98.87139677682768 32.303333699844146 71.39856464402652 H 0.0 **** 0.06
7873 H 98.77350703780536 34.049593585639805 71.72920318440538 H 0.0 **** 0.06
7874 H 97.39105518882525 32.99316647827024 72.10745915207826 H 0.0 **** 0.06
7875 H 97.8105763991341 33.33716003295897 70.41179666161582 H 0.0 **** 0.06
7876 C 87.9811333268863 81.58207177014962 82.34100468200091 C 0.0 **** -0.24
7877 H 88.6636204668294 80.85326070084311 81.90420979385942 H 0.0 **** 0.06
7878 H 87.72357271021576 82.33243548276558 81.59302010684206 H 0.0 **** 0.06
7879 H 88.46267674905448 82.06601475303154 83.19107303894504 H 0.0 **** 0.06
7880 H 87.07578245507909 81.07651965260915 82.67657867631235 H 0.0 **** 0.06
7881 C 7.845101610279585 20.29231697330073 68.75674747379668 C 0.0 **** -0.24
7882 H 7.375283755181499 19.62688621185208 68.03232000553191 H 0.0 **** 0.06
7883 H 7.741136191054977 19.871154715065728 69.75716021254522 H 0.0 **** 0.06
7884 H 7.360304287895417 21.267932612605648 68.71994058119583 H 0.0 **** 0.06
7885 H 8.902142680296834 20.40271406053381 68.51575432443593 H 0.0 **** 0.06
7886 C 7.9174250664647445 48.12403254079322 92.56915954194608 C 0.0 **** -0.24
7887 H 7.306730513803416 48.478449399265685 91.73782327502434 H 0.0 **** 0.06
7888 H 8.941667716164176 47.9701056910034 92.22720244611497 H 0.0 **** 0.06
7889 H 7.512401141257612 47.18315688631998 92.94035711366203 H 0.0 **** 0.06
7890 H 7.9076830088345105 48.865283511060625 93.36829417146427 H 0.0 **** 0.06
7891 C 61.29390820584402 54.41563743949895 17.34933752623118 C 0.0 **** -0.24
7892 H 60.835096286292696 54.09252117056634 16.414345757104968 H 0.0 **** 0.06
7893 H 61.91003838134387 55.29552197045757 17.166923618168767 H 0.0 **** 0.06
7894 H 61.914064455338575 53.61203165616659 17.745629087547 H 0.0 **** 0.06
7895 H 60.513850653462555 54.66065165114462 18.07051388244679 H 0.0 **** 0.06
7896 C 65.63417694762154 4.624764654528434 129.45362027794658 C 0.0 **** -0.24
7897 H 64.55205854450432 4.749734229643398 129.48330865762603 H 0.0 **** 0.06
7898 H 65.92200225330691 4.176253527332751 128.5023041023194 H 0.0 **** 0.06
7899 H 65.94806338649505 3.9764609380130906 130.27125199292848 H 0.0 **** 0.06
7900 H 66.1155502119849 5.597783203738004 129.55597644502697 H 0.0 **** 0.06
7901 C 135.44804982881513 114.47178732455723 8.271859576819622 C 0.0 **** -0.24
7902 H 136.41102665814583 114.61898807364943 7.782938699364706 H 0.0 **** 0.06
7903 H 134.8843171516314 113.70551048521585 7.740305902006924 H 0.0 **** 0.06
7904 H 134.88864226812592 115.40696689196713 8.263351056524698 H 0.0 **** 0.06
7905 H 135.6098639988291 114.15383252785654 9.302530257050933 H 0.0 **** 0.06
7906 C 20.606490474636757 83.64950935052099 25.043989581968624 C 0.0 **** -0.24
7907 H 21.689348773951167 83.63251896455563 25.165225993656257 H 0.0 **** 0.06
7908 H 20.19642905853783 84.51126276987164 25.572004552481538 H 0.0 **** 0.06
7909 H 20.180117216625035 82.7349876830186 25.454933588079847 H 0.0 **** 0.06
7910 H 20.359704910766197 83.72147753787512 23.984787749379386 H 0.0 **** 0.06
7911 C 37.21455192411983 48.34577836948816 61.11038090974023 C 0.0 **** -0.24
7912 H 36.54055622934955 48.02710951856574 61.90496129326961 H 0.0 **** 0.06
7913 H 38.22247859907365 47.9918778751875 61.325281548992194 H 0.0 **** 0.06
7914 H 37.21603297737104 49.434389916182425 61.050008751826994 H 0.0 **** 0.06
7915 H 36.877908393285736 47.930687784343746 60.15966640722476 H 0.0 **** 0.06
7916 C 110.44569469244936 37.15078362750896 127.67996287307533 C 0.0 **** -0.24
7917 H 111.22000200505633 36.60079146977962 127.14528833143757 H 0.0 **** 0.06
7918 H 110.43101458349315 38.185153929967896 127.33595901996249 H 0.0 **** 0.06
7919 H 110.65520425216044 37.12593675406043 128.74949709581298 H 0.0 **** 0.06
7920 H 109.47617747514704 36.689925063623065 127.48880103555614 H 0.0 **** 0.06
7921 C 100.96627597031349 106.92062337809176 132.54645240065378 C 0.0 **** -0.24
7922 H 99.99326943968708 106.80274757771963 132.0697558111952 H 0.0 **** 0.06
7923 H 101.75137412434601 106.64909947834113 131.84069697096163 H 0.0 **** 0.06
7924 H 101.02338116752695 106.27290115204602 133.42174378928215 H 0.0 **** 0.06
7925 H 101.09685988046681 107.95845362749299 132.85428403456717 H 0.0 **** 0.06
7926 C 33.864105908950464 73.14980264955281 71.27092878446176 C 0.0 **** -0.24
7927 H 34.947065750310884 73.26476446183948 71.31359977412141 H 0.0 **** 0.06
7928 H 33.54858768570417 73.05873795716154 70.23158450393814 H 0.0 **** 0.06
7929 H 33.3883674760693 74.02055483669714 71.7215867611717 H 0.0 **** 0.06
7930 H 33.57269672779811 72.25289440605144 71.81889632421284 H 0.0 **** 0.06
7931 C 50.64707701549678 18.459392581658122 95.57939540471982 C 0.0 **** -0.24
7932 H 49.8830781810757 18.149157841120925 96.29318830928678 H 0.0 **** 0.06
7933 H 50.481576517963745 17.951372314167678 94.62853835732565 H 0.0 **** 0.06
7934 H 51.632037005974055 18.198509230603683 95.96476884962217 H 0.0 **** 0.06
7935 H 50.58866928991496 19.537385078353495 95.4310385778399 H 0.0 **** 0.06
7936 C 22.754702399788016 2.1487636329352995 17.13273204324409 C 0.0 **** -0.24
7937 H 22.59730690211093 2.7129177006604834 18.05164709737096 H 0.0 **** 0.06
7938 H 23.353195253071448 2.74018114571399 16.44108718469129 H 0.0 **** 0.06
7939 H 21.79073942448847 1.9215209000632285 16.677468179433895 H 0.0 **** 0.06
7940 H 23.275930296669365 1.2190261107375875 17.362807517685994 H 0.0 **** 0.06
7941 C 68.79931004685739 83.3309095169921 81.3250428539626 C 0.0 **** -0.24
7942 H 69.29600169775085 83.69205161334433 80.42422773707766 H 0.0 **** 0.06
7943 H 68.79735327871612 84.118167238016 82.0787739092508 H 0.0 **** 0.06
7944 H 69.33264217797543 82.46173552497527 81.70958083159329 H 0.0 **** 0.06
7945 H 67.7726951887787 83.0522977224003 81.08687175677068 H 0.0 **** 0.06
7946 C 19.154242828172414 131.5076730387158 21.208032191543396 C 0.0 **** -0.24
7947 H 19.817289482323105 131.86179660044044 21.997234123063492 H 0.0 **** 0.06
7948 H 19.599510060755605 130.63870474132077 20.722694896974872 H 0.0 **** 0.06
7949 H 19.00970282793466 132.30000022591827 20.472867633953456 H 0.0 **** 0.06
7950 H 18.192106926845327 131.23165827767355 21.638928229842804 H 0.0 **** 0.06
7951 C 114.64202658163353 13.343801858972718 88.67493978832123 C 0.0 **** -0.24
7952 H 115.65068389906091 12.961880638173277 88.51595337767196 H 0.0 **** 0.06
7953 H 114.45572609451239 14.17020336649842 87.98950801992967 H 0.0 **** 0.06
7954 H 114.54454386499324 13.693419095990812 89.70242017217105 H 0.0 **** 0.06
7955 H 113.91910512762232 12.548664283110444 88.49220261212054 H 0.0 **** 0.06
7956 C 45.14265581746804 62.63560144057966 124.05818058712663 C 0.0 **** -0.24
7957 H 45.925746664999 62.530014184572224 123.30701939146974 H 0.0 **** 0.06
7958 H 44.73465722157239 63.645801096244895 124.01956867541611 H 0.0 **** 0.06
7959 H 45.56250130333662 62.45083417100818 125.04772389369876 H 0.0 **** 0.06
7960 H 44.349576010082515 61.914277966196224 123.86049918118115 H 0.0 **** 0.06
7961 C 68.71474173504463 46.23303171959405 132.90444878859182 C 0.0 **** -0.24
7962 H 67.70325155768212 46.63212204355803 132.83491782159507 H 0.0 **** 0.06
7963 H 68.67287490284812 45.193241308404964 133.23070511312312 H 0.0 **** 0.06
7964 H 69.28690262348051 46.81740764741255 133.624746460086 H 0.0 **** 0.06
7965 H 69.19514252927593 46.28763800833728 131.92807117485984 H 0.0 **** 0.06
7966 C 40.66968697113629 78.91250834766792 124.1088577579473 C 0.0 **** -0.24
7967 H 39.90218433858803 78.94701225393744 124.88196528221823 H 0.0 **** 0.06
7968 H 41.31059998659879 79.7908791480136 124.19460376433008 H 0.0 **** 0.06
7969 H 40.19646008902555 78.90148590083638 123.12796846867418 H 0.0 **** 0.06
7970 H 41.27030979259143 78.01093314225224 124.23318989705999 H 0.0 **** 0.06
7971 C 49.39301395101995 101.81531381360989 112.61091281462174 C 0.0 **** -0.24
7972 H 50.29208899092862 101.31628026388357 112.24739841863871 H 0.0 **** 0.06
7973 H 49.42100695997806 101.86535083605769 113.69939512898986 H 0.0 **** 0.06
7974 H 48.513682383472656 101.25214185046929 112.29531578756371 H 0.0 **** 0.06
7975 H 49.34621976193705 102.82307562454511 112.20070871591034 H 0.0 **** 0.06
7976 C 21.845807451217937 15.634409058978349 75.13301479145247 C 0.0 **** -0.24
7977 H 22.26841916402256 16.63434374414726 75.03432318880758 H 0.0 **** 0.06
7978 H 21.274519652403825 15.391250256806472 74.23709787984153 H 0.0 **** 0.06
7979 H 21.188867412730488 15.603320440784785 76.00339427072747 H 0.0 **** 0.06
7980 H 22.650704713072344 14.910476862131759 75.25934224101078 H 0.0 **** 0.06
7981 C 104.28646694722961 122.8831831792283 8.160862171866 C 0.0 **** -0.24
7982 H 103.38236503427329 122.76163635646958 7.56482598865972 H 0.0 **** 0.06
7983 H 104.31845052574377 123.89320379042482 8.57010598997573 H 0.0 **** 0.06
7984 H 105.16103987398509 122.71731080097226 7.5322250846916745 H 0.0 **** 0.06
7985 H 104.28398597172549 122.16053671204025 8.977704906304751 H 0.0 **** 0.06
7986 C 124.45486345219365 117.99324240570024 115.49011437586188 C 0.0 **** -0.24
7987 H 123.8966617906661 118.92778868069075 115.44690363661329 H 0.0 **** 0.06
7988 H 123.7988163895875 117.16459230372084 115.2193036886066 H 0.0 **** 0.06
7989 H 124.83233849141848 117.84189273413239 116.50097138499316 H 0.0 **** 0.06
7990 H 125.2906512128636 118.03689893239425 114.79193747910307 H 0.0 **** 0.06
7991 C 97.42998766150104 71.463386727869 82.76919023072213 C 0.0 **** -0.24
7992 H 98.01732291537823 72.21118498845149 82.2353614464948 H 0.0 **** 0.06
7993 H 98.0972472558355 70.71266962276715 83.1933889506853 H 0.0 **** 0.06
7994 H 96.73698290508509 70.984942187407 82.07763744239219 H 0.0 **** 0.06
7995 H 96.86973078152792 71.94607901082234 83.56916610023887 H 0.0 **** 0.06
7996 C 62.254780552150294 105.30951827118669 78.68820863821428 C 0.0 **** -0.24
7997 H 62.14165229552066 106.21578470547323 79.2837111478965 H 0.0 **** 0.06
7998 H 62.15025794619896 104.43650921929788 79.33356617430113 H 0.0 **** 0.06
7999 H 63.23985516430133 105.30133359116093 78.22221716031892 H 0.0 **** 0.06
8000 H 61.48568380401156 105.2850027829653 77.9164850966812 H 0.0 **** 0.06
8001 C 32.697216346667346 3.8547250000763498 92.09202234667761 C 0.0 **** -0.24
8002 H 33.14735260401551 4.2340516795874485 93.00951277771205 H 0.0 **** 0.06
8003 H 31.611816155576975 3.84335646807234 92.19885078175763 H 0.0 **** 0.06
8004 H 33.054496486203874 2.842906288456941 91.90353944229966 H 0.0 **** 0.06
8005 H 32.97287938147815 4.500096372410212 91.2582677524015 H 0.0 **** 0.06
8006 C 48.824196697449494 3.758161440589703 74.78764445986872 C 0.0 **** -0.24
8007 H 48.12099139371304 4.590199449769187 74.83577096202328 H 0.0 **** 0.06
8008 H 49.83126573815997 4.12136121384458 74.9916467050308 H 0.0 **** 0.06
8009 H 48.79142271739629 3.3140078168451623 73.79300710604105 H 0.0 **** 0.06
8010 H 48.54990882317797 3.008991852211466 75.52982578242973 H 0.0 **** 0.06
8011 C 43.93667574091188 38.552825075806254 26.70372577144684 C 0.0 **** -0.24
8012 H 43.94855305834602 37.904987425461314 25.82784089356616 H 0.0 **** 0.06
8013 H 44.519912060890476 38.09539329755859 27.502115129072877 H 0.0 **** 0.06
8014 H 42.90861195311609 38.69224254408641 27.03756505260199 H 0.0 **** 0.06
8015 H 44.36896384402252 39.52048496176394 26.44624476387031 H 0.0 **** 0.06
8016 C 39.273169840092635 9.395936908761485 26.050766893797046 C 0.0 **** -0.24
8017 H 38.57455840470283 9.132430596243239 25.25658457665645 H 0.0 **** 0.06
8018 H 38.927101963365374 8.972939462732711 26.993721418491134 H 0.0 **** 0.06
8019 H 39.331636594688064 10.480601008462202 26.137861459399886 H 0.0 **** 0.06
8020 H 40.259626140086 8.997334992216338 25.81324309323574 H 0.0 **** 0.06
8021 C 24.73695934665917 50.12982888900032 72.98085457554068 C 0.0 **** -0.24
8022 H 23.78606056702703 50.1267062954648 72.44709913623224 H 0.0 **** 0.06
8023 H 25.48678832172545 50.65185870228157 72.38573905567432 H 0.0 **** 0.06
8024 H 25.060701576593104 49.10304470167385 73.15261395938936 H 0.0 **** 0.06
8025 H 24.614987272778215 50.63700824494269 73.93781484937014 H 0.0 **** 0.06
8026 C 63.79664100847461 111.3085435807559 119.54155475716396 C 0.0 **** -0.24
8027 H 63.82632174159245 110.84540806793396 120.52778272722071 H 0.0 **** 0.06
8028 H 64.71720183439399 111.07899769473298 119.00405819285083 H 0.0 **** 0.06
8029 H 63.69864008956135 112.38894863000809 119.64990527739877 H 0.0 **** 0.06
8030 H 62.94345675979618 110.92114959900888 118.98450394093572 H 0.0 **** 0.06
8031 C 33.1248407624543 63.24728549797891 59.55177946411632 C 0.0 **** -0.24
8032 H 33.722644731866616 64.08783582284431 59.19785478816064 H 0.0 **** 0.06
8033 H 32.247209312470986 63.133253468042014 58.91517533700318 H 0.0 **** 0.06
8034 H 32.8098273763854 63.43358279830612 60.57832363131894 H 0.0 **** 0.06
8035 H 33.722022245329846 62.33604114469726 59.514737878069724 H 0.0 **** 0.06
8036 C 113.306854525257 71.19790293281653 87.86767114263691 C 0.0 **** -0.24
8037 H 112.80392221086862 70.47151772277596 88.50599917170132 H 0.0 **** 0.06
8038 H 112.71591111974149 72.11341356937317 87.82420527708138 H 0.0 **** 0.06
8039 H 113.4144279973595 70.78591053753405 86.8641975336665 H 0.0 **** 0.06
8040 H 114.29216514968482 71.42075944850382 88.2761536688817 H 0.0 **** 0.06
8041 C 112.73604817755518 53.76613097368387 8.817634343529814 C 0.0 **** -0.24
8042 H 112.71246637627755 54.80022992466468 9.160732432016733 H 0.0 **** 0.06
8043 H 111.78521141438094 53.517993326910315 8.347226896411279 H 0.0 **** 0.06
8044 H 112.90624074876857 53.10462514517877 9.667273446412118 H 0.0 **** 0.06
8045 H 113.54250286465194 53.642064915994496 8.094365687474873 H 0.0 **** 0.06
8046 C 81.9566498984565 23.64892204181264 83.23106482531526 C 0.0 **** -0.24
8047 H 82.7135181378373 24.422479688199374 83.36461684870773 H 0.0 **** 0.06
8048 H 80.98157092117577 24.04278162005999 83.517237270663 H 0.0 **** 0.06
8049 H 82.20111393658883 22.79051217569757 83.85817724026072 H 0.0 **** 0.06
8050 H 81.93310955113313 23.340820244817706 82.18590733278461 H 0.0 **** 0.06
8051 C 81.42686684343363 92.62966379008651 75.49333631575536 C 0.0 **** -0.24
8052 H 80.88371955046279 91.71570259714932 75.25229268224683 H 0.0 **** 0.06
8053 H 80.74157825124644 93.3529672449214 75.93471562699858 H 0.0 **** 0.06
8054 H 81.86000704794355 93.04540385393105 74.583928928945 H 0.0 **** 0.06
8055 H 82.22256555466157 92.40255299327153 76.20325837957597 H 0.0 **** 0.06
8056 C 86.18975640514876 106.74522292642052 37.56506972323149 C 0.0 **** -0.24
8057 H 87.27411210736518 106.69981935205232 37.66568922537897 H 0.0 **** 0.06
8058 H 85.87224930362827 106.08190406028882 36.76009927931898 H 0.0 **** 0.06
8059 H 85.88932945692733 107.76678950638166 37.33465839614189 H 0.0 **** 0.06
8060 H 85.72489093185743 106.43180004418787 38.49933853267078 H 0.0 **** 0.06
8061 C 126.05918736519874 68.83568988011136 13.48174342980613 C 0.0 **** -0.24
8062 H 126.79047576112987 68.57981637627672 12.715336832687626 H 0.0 **** 0.06
8063 H 125.13361686389226 68.29000737216474 13.29674900846436 H 0.0 **** 0.06
8064 H 125.86221001544993 69.90716634669072 13.452844497065655 H 0.0 **** 0.06
8065 H 126.45109109482758 68.56522282784054 14.462578346344486 H 0.0 **** 0.06
8066 C 54.458493372331915 121.9334932024738 123.08894867051181 C 0.0 **** -0.24
8067 H 53.55985993719733 122.15133205493794 123.66669020174844 H 0.0 **** 0.06
8068 H 55.06180107995614 121.1972441681063 123.62151350574206 H 0.0 **** 0.06
8069 H 55.034796556028084 122.84855879375405 122.95570593992056 H 0.0 **** 0.06
8070 H 54.17625279446116 121.53607261248807 122.11449644026584 H 0.0 **** 0.06
8071 C 91.27629582940469 14.103772016897153 96.94838418081565 C 0.0 **** -0.24
8072 H 91.0997947534317 13.072356819764408 96.64607632051532 H 0.0 **** 0.06
8073 H 91.44644045258042 14.718075361209827 96.06363658049666 H 0.0 **** 0.06
8074 H 92.15154549528233 14.147596710854032 97.59561630635675 H 0.0 **** 0.06
8075 H 90.40640340419316 14.477065363519358 97.48816772676172 H 0.0 **** 0.06
8076 C 92.06624853022274 36.703928821800986 65.06188195984242 C 0.0 **** -0.24
8077 H 92.61240652694033 36.603586267914636 64.12369280121072 H 0.0 **** 0.06
8078 H 92.44724287744417 37.56341944596136 65.61297651822855 H 0.0 **** 0.06
8079 H 92.20166729134323 35.800766036208174 65.65802612461343 H 0.0 **** 0.06
8080 H 91.00621137138236 36.84604747513475 64.85184013762927 H 0.0 **** 0.06
8081 C 105.58484281201234 92.31693998531225 7.789510371242308 C 0.0 **** -0.24
8082 H 106.27506442832441 91.91592603495792 8.532029067763837 H 0.0 **** 0.06
8083 H 104.76559070078083 91.61501287289944 7.638231467283024 H 0.0 **** 0.06
8084 H 106.11265709331617 92.46885478025828 6.84770887037531 H 0.0 **** 0.06
8085 H 105.18748824742062 93.26991817011513 8.140456297249212 H 0.0 **** 0.06
8086 C 117.45449504513422 69.12172214445582 11.270620099253136 C 0.0 **** -0.24
8087 H 116.46528373404675 69.21737299901994 11.717185785179481 H 0.0 **** 0.06
8088 H 118.18354026911561 69.65247755209955 11.88394128696126 H 0.0 **** 0.06
8089 H 117.44312111739879 69.54947632907772 10.268533269139652 H 0.0 **** 0.06
8090 H 117.72685271104004 68.06789391416095 11.21234981615791 H 0.0 **** 0.06
8091 C 119.56462071305921 0.19981802076048893 2.6564838169043696 C 0.0 **** -0.24
8092 H 118.5849122450707 0.35599571222152804 3.107158724571832 H 0.0 **** 0.06
8093 H 120.30484539841214 0.8082026047897273 3.1761997759115275 H 0.0 **** 0.06
8094 H 119.53013323986484 0.48601289229716826 1.6053952566835505 H 0.0 **** 0.06
8095 H 119.83697947395127 -0.8524088172472375 2.73767151068364 H 0.0 **** 0.06
8096 C 123.49180931790714 70.4542807708652 65.69515593249747 C 0.0 **** -0.24
8097 H 122.49130019946728 70.06218761777826 65.50820246385365 H 0.0 **** 0.06
8098 H 123.69949041946894 70.42276876423287 66.76476502899428 H 0.0 **** 0.06
8099 H 123.54907754914157 71.48409759260868 65.34341497897043 H 0.0 **** 0.06
8100 H 124.22454491571233 69.84665171665566 65.16436545925959 H 0.0 **** 0.06
8101 C 25.545182918676346 127.98780623692278 133.209285711838 C 0.0 **** -0.24
8102 H 25.32008808895131 127.78679263024759 132.16184458496718 H 0.0 **** 0.06
8103 H 24.94031420248757 127.33783018134903 133.84125169770954 H 0.0 **** 0.06
8104 H 25.318646773452087 129.03002274585828 133.4350537430521 H 0.0 **** 0.06
8105 H 26.601873340201905 127.79728448248352 133.3959159839107 H 0.0 **** 0.06
8106 C 122.56117315579992 88.35826536607276 70.4274117240419 C 0.0 **** -0.24
8107 H 121.62062486282515 88.71207929827986 70.00491357979422 H 0.0 **** 0.06
8108 H 123.39046617353019 88.70956214023136 69.81266561959669 H 0.0 **** 0.06
8109 H 122.56111592275475 87.26866573349888 70.45121687002478 H 0.0 **** 0.06
8110 H 122.67134530596735 88.74354244773467 71.44113098211362 H 0.0 **** 0.06
8111 C 124.4935583826217 107.55644913148103 77.50162606513916 C 0.0 **** -0.24
8112 H 125.26450800705788 107.83996972118717 76.78544327187213 H 0.0 **** 0.06
8113 H 124.84626062718348 106.71734448171979 78.1025167732269 H 0.0 **** 0.06
8114 H 123.58962218400046 107.26518099087014 76.96619511243736 H 0.0 **** 0.06
8115 H 124.27303492751014 108.40274271831188 78.15253746637228 H 0.0 **** 0.06
8116 C 96.76014581620029 11.568465122429984 77.58329224804334 C 0.0 **** -0.24
8117 H 96.4474916547632 10.671119958507347 78.11956662593373 H 0.0 **** 0.06
8118 H 96.62585012168674 12.439119093234979 78.22534551751778 H 0.0 **** 0.06
8119 H 96.15612965473473 11.682338535996337 76.68316204568923 H 0.0 **** 0.06
8120 H 97.81045939975608 11.478172705656505 77.30707006446609 H 0.0 **** 0.06
8121 C 43.53284100330897 68.0918374961525 47.88135643814235 C 0.0 **** -0.24
8122 H 42.54243660528985 67.63792620628294 47.9174775896588 H 0.0 **** 0.06
8123 H 43.67251681228156 68.5836888011321 46.91920625217824 H 0.0 **** 0.06
8124 H 44.29107922965213 67.31869335524709 48.007717098344585 H 0.0 **** 0.06
8125 H 43.626116968966905 68.82559080660258 48.68253418131667 H 0.0 **** 0.06
8126 C 128.40892644291048 102.58024149536027 15.357925798042771 C 0.0 **** -0.24
8127 H 129.1609814098461 103.2300400327536 14.908963317286826 H 0.0 **** 0.06
8128 H 127.88433229696231 102.034737142035 14.573590386624844 H 0.0 **** 0.06
8129 H 127.69663389040129 103.18436245820317 15.920327138403195 H 0.0 **** 0.06
8130 H 128.89659779298577 101.87338295232112 16.029539330097847 H 0.0 **** 0.06
8131 C 50.44668186359422 131.09427055280833 75.25800441501298 C 0.0 **** -0.24
8132 H 49.43579868825918 131.00752221854432 75.65560970453579 H 0.0 **** 0.06
8133 H 50.63887258937558 130.26955058411139 74.57038762921918 H 0.0 **** 0.06
8134 H 51.16419431083597 131.05805694557958 76.07824862449449 H 0.0 **** 0.06
8135 H 50.54877898520908 132.040887894706 74.72793194920196 H 0.0 **** 0.06
8136 C 96.00495223580532 68.66007801252796 80.26286694089379 C 0.0 **** -0.24
8137 H 95.32682012521434 67.84424834382848 80.50996161849648 H 0.0 **** 0.06
8138 H 96.27836409317979 69.19442120938712 81.17353012491606 H 0.0 **** 0.06
8139 H 95.51249310021927 69.34537749457671 79.57247957628378 H 0.0 **** 0.06
8140 H 96.90356942411665 68.2567967639387 79.79469015534946 H 0.0 **** 0.06
8141 C 1.7777604034584158 78.90531639248668 57.88459287930657 C 0.0 **** -0.24
8142 H 2.2055342373714097 78.41831551514423 57.00876657575233 H 0.0 **** 0.06
8143 H 1.9911914141927127 78.30924861305294 58.77279079866756 H 0.0 **** 0.06
8144 H 0.6985648751766007 78.996395816463 57.758332635835956 H 0.0 **** 0.06
8145 H 2.2149426431190022 79.89672784674099 57.99836909416115 H 0.0 **** 0.06
8146 C 20.35214107855071 24.285753902995225 75.97012126881397 C 0.0 **** -0.24
8147 H 20.046196042524386 25.052697732324702 75.2587536791044 H 0.0 **** 0.06
8148 H 20.95776591760756 24.738965231628015 76.7554200295532 H 0.0 **** 0.06
8149 H 20.936631546318146 23.52369598605469 75.45437356114503 H 0.0 **** 0.06
8150 H 19.46729124935441 23.82652995777653 76.41245629434336 H 0.0 **** 0.06
8151 C 128.75865625386575 93.64243746466342 105.54129001167337 C 0.0 **** -0.24
8152 H 129.0647793502088 93.81312857813712 106.57341464402293 H 0.0 **** 0.06
8153 H 128.0253084067641 92.836636545315 105.50802019238927 H 0.0 **** 0.06
8154 H 129.6281679639134 93.36697883904452 104.94434110133193 H 0.0 **** 0.06
8155 H 128.31626918784985 94.55399985385279 105.13942964013233 H 0.0 **** 0.06
8156 C 88.71322099286243 78.47157422299553 126.32447110345117 C 0.0 **** -0.24
8157 H 87.92671646969262 78.21748478286528 127.03562037717808 H 0.0 **** 0.06
8158 H 89.1533475486861 79.43082819105314 126.5966649595394 H 0.0 **** 0.06
8159 H 88.28954750041288 78.53546320338653 125.32306261890045 H 0.0 **** 0.06
8160 H 89.48287784341491 77.69951260028058 126.34472647649079 H 0.0 **** 0.06
8161 C 73.81060460788024 127.06609544245919 59.30354337805166 C 0.0 **** -0.24
8162 H 74.46308233889039 127.93555220331552 59.38150360841556 H 0.0 **** 0.06
8163 H 72.81831834617088 127.32190392691263 59.67532162459483 H 0.0 **** 0.06
8164 H 74.22214827430395 126.24944644267191 59.897648870854496 H 0.0 **** 0.06
8165 H 73.73960832895456 126.75649456523581 58.26091790334951 H 0.0 **** 0.06
8166 C 23.63876489298343 26.80379411840825 135.36986119304254 C 0.0 **** -0.24
8167 H 22.79649311453329 26.128168502037283 135.5238073153431 H 0.0 **** 0.06
8168 H 23.26647780530027 27.816811782739066 135.21582996999473 H 0.0 **** 0.06
8169 H 24.202871835093987 26.48597622598544 134.49326311755107 H 0.0 **** 0.06
8170 H 24.28627099994634 26.78286609831838 136.24584456757066 H 0.0 **** 0.06
8171 C 3.667365811128434 72.29702962613257 11.324229635884564 C 0.0 **** -0.24
8172 H 4.0158238188871 71.51653243374533 10.648178461705275 H 0.0 **** 0.06
8173 H 2.5912461724848868 72.195997344392 11.471291340795819 H 0.0 **** 0.06
8174 H 3.885157592537439 73.27461746880195 10.89374754954014 H 0.0 **** 0.06
8175 H 4.1759301719567645 72.20050711564957 12.283417705443554 H 0.0 **** 0.06
8176 C 74.46497646878038 132.1854375719899 121.1695396976682 C 0.0 **** -0.24
8177 H 74.06511134900055 131.2428419948626 121.54344681132267 H 0.0 **** 0.06
8178 H 73.9422582941397 133.01485794134942 121.64674893862423 H 0.0 **** 0.06
8179 H 74.32188141426101 132.2371631062349 120.09028563636082 H 0.0 **** 0.06
8180 H 75.52788630617546 132.24501637621364 121.39936139983541 H 0.0 **** 0.06
8181 C 92.7751173296805 135.91302401828767 88.93998613128929 C 0.0 **** -0.24
8182 H 92.57480067648541 135.78189898012084 90.00392625162635 H 0.0 **** 0.06
8183 H 92.13594901199441 135.24251323837166 88.36517639127862 H 0.0 **** 0.06
8184 H 93.82005891773451 135.68289856483642 88.73666046394362 H 0.0 **** 0.06
8185 H 92.56740041048558 136.94487239554613 88.65660710525736 H 0.0 **** 0.06
8186 C 96.80285903288498 90.37157589746607 83.38096460636098 C 0.0 **** -0.24
8187 H 97.25849829801004 90.1185265741318 84.3388466511779 H 0.0 **** 0.06
8188 H 96.14757617300474 91.23259358427958 83.50677361876359 H 0.0 **** 0.06
8189 H 96.22252715820544 89.52281477358602 83.01970637121013 H 0.0 **** 0.06
8190 H 97.58475728668793 90.61098217838372 82.65914891717361 H 0.0 **** 0.06
8191 C 39.70881962975116 60.9110801080198 11.43016011347299 C 0.0 **** -0.24
8192 H 38.84772179560514 61.440846687605 11.023498182802669 H 0.0 **** 0.06
8193 H 40.12439438548756 60.25311402327628 10.665801298969413 H 0.0 **** 0.06
8194 H 39.397944092934964 60.31797891345347 12.289651469315086 H 0.0 **** 0.06
8195 H 40.465420320911534 61.631852715161244 11.739526052950254 H 0.0 **** 0.06
8196 C 86.77688642999259 47.05607576378918 45.89266260332349 C 0.0 **** -0.24
8197 H 86.51208873398934 46.622105495271626 46.85683896023771 H 0.0 **** 0.06
8198 H 86.1273607882519 46.64563264023059 45.11906517750877 H 0.0 **** 0.06
8199 H 87.81500859218859 46.81815332009714 45.65983354999861 H 0.0 **** 0.06
8200 H 86.65243234800302 48.13805109986049 45.93557659592386 H 0.0 **** 0.06
8201 C 34.97185245546375 38.538503391856835 74.90074027113671 C 0.0 **** -0.24
8202 H 34.886216121541864 37.88712142061223 75.77046666808556 H 0.0 **** 0.06
8203 H 34.241494491573924 39.344582637351266 74.97590402846457 H 0.0 **** 0.06
8204 H 34.78270025066955 37.961148903667265 73.99449670208553 H 0.0 **** 0.06
8205 H 35.97644607339024 38.95938447622271 74.85900495076974 H 0.0 **** 0.06
8206 C 99.35191689747187 106.26438164317449 23.93165375436135 C 0.0 **** -0.24
8207 H 100.06821963394313 106.17011704438212 24.74750521951566 H 0.0 **** 0.06
8208 H 99.24507806087453 105.302277559662 23.429277083552392 H 0.0 **** 0.06
8209 H 99.70911738968876 107.00850515060085 23.219992977980297 H 0.0 **** 0.06
8210 H 98.38711895552399 106.57621873222234 24.33043135722565 H 0.0 **** 0.06
8211 C 74.27840439008094 95.57893625973004 133.33565058244054 C 0.0 **** -0.24
8212 H 74.39628070309267 95.73327067532706 134.40842415869594 H 0.0 **** 0.06
8213 H 75.1155337003894 94.99163684671143 132.95931437162122 H 0.0 **** 0.06
8214 H 74.25459056891096 96.54426823853387 132.8301457572996 H 0.0 **** 0.06
8215 H 73.34597508095747 95.04699690110508 133.14622996167168 H 0.0 **** 0.06
8216 C 99.79893387043182 12.59733378998035 48.73010265688504 C 0.0 **** -0.24
8217 H 100.63643113242117 12.16523916296174 48.181466458695056 H 0.0 **** 0.06
8218 H 99.22033535368132 13.237917560908535 48.063790195094384 H 0.0 **** 0.06
8219 H 100.17803145905086 13.189381876044859 49.56358162001044 H 0.0 **** 0.06
8220 H 99.16330394467562 11.798862725675686 49.11120967538787 H 0.0 **** 0.06
8221 C 136.19089645115486 116.03524865932718 57.04031797502688 C 0.0 **** -0.24
8222 H 135.98388872879832 115.05562383353453 57.470765476474725 H 0.0 **** 0.06
8223 H 135.89877413362075 116.03880523668482 55.989999935871765 H 0.0 **** 0.06
8224 H 137.25654168489228 116.24985380551837 57.12256725228946 H 0.0 **** 0.06
8225 H 135.62410407289087 116.79569599410993 57.5769950543675 H 0.0 **** 0.06
8226 C 6.203059264574762 117.36393192196763 24.269197597795085 C 0.0 **** -0.24
8227 H 6.95696425519364 117.66842367386641 24.994461724408353 H 0.0 **** 0.06
8228 H 6.689559610292406 116.89567979383324 23.414000905237856 H 0.0 **** 0.06
8229 H 5.645534182496618 118.23973572047004 23.936668550986468 H 0.0 **** 0.06
8230 H 5.518309134630357 116.65314725667409 24.732618050409258 H 0.0 **** 0.06
8231 C 85.86252572323863 126.76065990851193 4.78070178533304 C 0.0 **** -0.24
8232 H 86.41994524240687 127.6935840678875 4.695097651233752 H 0.0 **** 0.06
8233 H 85.97345742951183 126.36306587296103 5.789645397705897 H 0.0 **** 0.06
8234 H 86.24809547371143 126.03892841110161 4.060628404816285 H 0.0 **** 0.06
8235 H 84.80763815376412 126.94791126155616 4.578021626567633 H 0.0 **** 0.06
8236 C 112.19930862783818 111.32191363065172 25.525475661162645 C 0.0 **** -0.24
8237 H 112.31399164916803 110.24785314066386 25.381351049153494 H 0.0 **** 0.06
8238 H 113.10555052757212 111.83158767481737 25.196442067959083 H 0.0 **** 0.06
8239 H 112.0280890885195 111.5302502875268 26.5814798077476 H 0.0 **** 0.06
8240 H 111.3504510901906 111.67849332750765 24.942609611572138 H 0.0 **** 0.06
8241 C 105.5202452564668 21.493394154148916 28.208798579230802 C 0.0 **** -0.24
8242 H 105.49959942835847 20.466493826381004 28.573360668650523 H 0.0 **** 0.06
8243 H 104.65832601621662 21.66643035516161 27.562783986043094 H 0.0 **** 0.06
8244 H 106.43671799381735 21.658102881818692 27.642649487404604 H 0.0 **** 0.06
8245 H 105.48571863678087 22.180153802215173 29.05443097687707 H 0.0 **** 0.06
8246 C 117.11265238557874 86.25819747909296 84.00638178634956 C 0.0 **** -0.24
8247 H 116.34357214982725 86.11442571870873 83.2474283380781 H 0.0 **** 0.06
8248 H 117.37296293336922 85.29450178293115 84.44547305244845 H 0.0 **** 0.06
8249 H 116.73713932001183 86.92297770836365 84.78362897850391 H 0.0 **** 0.06
8250 H 117.99797152967619 86.69809715311357 83.5467260737697 H 0.0 **** 0.06
8251 C 93.35674842306042 100.08591653588172 13.525336028705397 C 0.0 **** -0.24
8252 H 93.42871683127964 99.59107669420666 12.557154687437958 H 0.0 **** 0.06
8253 H 93.38171626328725 101.16768836921403 13.382470651717057 H 0.0 **** 0.06
8254 H 94.19573201314986 99.78288602522395 14.151051672666654 H 0.0 **** 0.06
8255 H 92.42186950172743 99.8043042759358 14.00903113983864 H 0.0 **** 0.06
8256 C 94.30520981033823 32.949291874946 71.28707385366602 C 0.0 **** -0.24
8257 H 95.11688628835589 33.6742590472723 71.21823343102432 H 0.0 **** 0.06
8258 H 93.37312776699525 33.418916892151486 70.97115374166299 H 0.0 **** 0.06
8259 H 94.20980528386599 32.60796883621856 72.31784522549248 H 0.0 **** 0.06
8260 H 94.52203031695842 32.099322881996216 70.64136063398712 H 0.0 **** 0.06
8261 C 47.50826832822861 80.65013109043954 10.323817473215598 C 0.0 **** -0.24
8262 H 48.48908653676142 81.12320652666 10.372708572575078 H 0.0 **** 0.06
8263 H 46.75221995087463 81.34282770429618 10.693167311076479 H 0.0 **** 0.06
8264 H 47.50905758337615 79.74941635376068 10.939012953168714 H 0.0 **** 0.06
8265 H 47.28547748470339 80.38393238245014 9.290195402329175 H 0.0 **** 0.06
8266 C 60.082799676758896 20.791711213661188 125.16322577456296 C 0.0 **** -0.24
8267 H 59.33501089877967 20.024184770301076 125.36316619436829 H 0.0 **** 0.06
8268 H 59.70168727654175 21.483178871647453 124.41086552888544 H 0.0 **** 0.06
8269 H 60.995158228846094 20.32129390452471 124.79614880033384 H 0.0 **** 0.06
8270 H 60.29864485499613 21.336638765320828 126.08238239743804 H 0.0 **** 0.06
8271 C 26.176932605684158 117.1975973437784 47.64146946857872 C 0.0 **** -0.24
8272 H 26.049294054691018 116.39577374185512 46.91428835700185 H 0.0 **** 0.06
8273 H 25.272360194724428 117.2881731483908 48.244910397226846 H 0.0 **** 0.06
8274 H 26.36110881202933 118.13595309157597 47.11931563117366 H 0.0 **** 0.06
8275 H 27.02424713563164 116.96937883881367 48.288480665169175 H 0.0 **** 0.06
8276 C 95.70024288122374 1.9777857070273797 98.64679604737836 C 0.0 **** -0.24
8277 H 96.7221499218834 2.3164116463131563 98.813056282844 H 0.0 **** 0.06
8278 H 95.05454265629301 2.840360058325359 98.4796858851705 H 0.0 **** 0.06
8279 H 95.35303024299338 1.4283978428302362 99.52222305785227 H 0.0 **** 0.06
8280 H 95.67060211180161 1.3265845103495337 97.77331824060006 H 0.0 **** 0.06
8281 C 85.45768829667067 59.741563245431365 90.02639482976984 C 0.0 **** -0.24
8282 H 85.23880472242443 60.249084290848955 89.08627968420356 H 0.0 **** 0.06
8283 H 84.79706414042704 58.88032110950108 90.13568738322965 H 0.0 **** 0.06
8284 H 85.29787800451369 60.42931896840554 90.85683856758035 H 0.0 **** 0.06
8285 H 86.49463850693058 59.40637430933781 90.0247583534634 H 0.0 **** 0.06
8286 C 56.46162772554055 114.86960351852005 26.288425614089704 C 0.0 **** -0.24
8287 H 55.53151582120489 114.98172405351809 25.731537044387807 H 0.0 **** 0.06
8288 H 56.26555123772883 114.99585227718799 27.35327693354497 H 0.0 **** 0.06
8289 H 57.17600451960948 115.62448062031243 25.95859162695819 H 0.0 **** 0.06
8290 H 56.874425491009944 113.87619655040183 26.110255178401296 H 0.0 **** 0.06
8291 C 73.31500378982594 57.36442462566207 7.724891549971641 C 0.0 **** -0.24
8292 H 73.33384628526682 58.40978580222878 7.417665239430381 H 0.0 **** 0.06
8293 H 72.31421309210657 57.10690527968903 8.073124053995521 H 0.0 **** 0.06
8294 H 74.03212361290514 57.21050292170305 8.531739348387106 H 0.0 **** 0.06
8295 H 73.57923929910316 56.73194984408771 6.878286424879331 H 0.0 **** 0.06
8296 C 84.46294110202369 115.33350074933455 67.08415420672168 C 0.0 **** -0.24
8297 H 83.60665131559605 115.8223859814307 66.62002052674237 H 0.0 **** 0.06
8298 H 85.2606484860013 115.2227686855471 66.34844673558155 H 0.0 **** 0.06
8299 H 84.16599957727901 114.35066746082796 67.45006747006141 H 0.0 **** 0.06
8300 H 84.81947016261205 115.93917034927216 67.91818567731104 H 0.0 **** 0.06
8301 C 77.61572020815953 94.33687052321102 53.21665797383095 C 0.0 **** -0.24
8302 H 77.71617092027776 93.31777527002384 53.59136669434115 H 0.0 **** 0.06
8303 H 78.54224175266643 94.63585836161346 52.72663740781739 H 0.0 **** 0.06
8304 H 77.40961179689344 95.01075733137537 54.0477975058857 H 0.0 **** 0.06
8305 H 76.79507567845741 94.38086692395345 52.50075929018506 H 0.0 **** 0.06
8306 C 80.37855046246531 73.6268481035237 126.20606066982407 C 0.0 **** -0.24
8307 H 80.95399118062966 73.99070801369334 125.35541681837083 H 0.0 **** 0.06
8308 H 79.43914417519878 74.17588885677158 126.27067599840001 H 0.0 **** 0.06
8309 H 80.95080483710083 73.77643595595191 127.1222699920063 H 0.0 **** 0.06
8310 H 80.17107650538517 72.56447568727545 126.07644783990995 H 0.0 **** 0.06
8311 C 114.31142821116222 110.09205612565069 98.70863029934429 C 0.0 **** -0.24
8312 H 114.38900653825411 110.72421558911924 99.59353769884486 H 0.0 **** 0.06
8313 H 114.05038218700105 109.0767058837402 99.00896840237874 H 0.0 **** 0.06
8314 H 115.26652401877885 110.08281278615863 98.18418241307089 H 0.0 **** 0.06
8315 H 113.53787617724569 110.48561683393848 98.04800456902356 H 0.0 **** 0.06
8316 C 83.26712686471245 10.122856139136047 105.593082311454 C 0.0 **** -0.24
8317 H 84.31576127548772 10.408069761425338 105.67908892062917 H 0.0 **** 0.06
8318 H 83.10575598578083 9.613856092404262 104.6426721539172 H 0.0 **** 0.06
8319 H 82.6433253586747 11.015702772038253 105.6384435836527 H 0.0 **** 0.06
8320 H 83.0046245891981 9.454713960065817 106.4126105856732 H 0.0 **** 0.06
8321 C 120.88903866949518 41.04416725844047 119.71146033614593 C 0.0 **** -0.24
8322 H 120.67473555486471 40.262549686906524 118.98170882473374 H 0.0 **** 0.06
8323 H 121.72557419203623 41.64794904142785 119.3603294227537 H 0.0 **** 0.06
8324 H 121.14557077177462 40.58790492842337 120.66730813083768 H 0.0 **** 0.06
8325 H 120.01041567869943 41.677374596142684 119.83444882025935 H 0.0 **** 0.06
8326 C 95.5948100024005 126.48630517221918 88.7616460262658 C 0.0 **** -0.24
8327 H 96.65117857766967 126.57512298214624 89.01379252780518 H 0.0 **** 0.06
8328 H 95.33491922243064 127.23872257844687 88.01669440669468 H 0.0 **** 0.06
8329 H 94.9929276741739 126.63845590595832 89.65673083168917 H 0.0 **** 0.06
8330 H 95.40053160563824 125.49263146775289 88.35717159618812 H 0.0 **** 0.06
8331 C 83.9405199001344 5.067011769161045 108.45963409655383 C 0.0 **** -0.24
8332 H 83.85413582251863 3.981092295849894 108.51039632778077 H 0.0 **** 0.06
8333 H 83.67382669972926 5.404925672456216 107.4581207398382 H 0.0 **** 0.06
8334 H 84.9663931292207 5.359817153385173 108.68184381740852 H 0.0 **** 0.06
8335 H 83.26739730644101 5.5189245219779295 109.18788122437974 H 0.0 **** 0.06
8336 C 75.82036225161153 97.90743561236292 0.6990679482787066 C 0.0 **** -0.24
8337 H 74.9211039272634 98.00822008581665 0.09043006608541759 H 0.0 **** 0.06
8338 H 75.70426353314724 98.48374470357118 1.6172035608826612 H 0.0 **** 0.06
8339 H 76.6786960064527 98.28166356566052 0.14156221498915755 H 0.0 **** 0.06
8340 H 75.97599873697357 96.85746843854452 0.9459611587091317 H 0.0 **** 0.06
8341 C 44.0701671856022 117.13104298712685 75.05586658201668 C 0.0 **** -0.24
8342 H 44.6931043877301 116.63100395856694 74.31402880435456 H 0.0 **** 0.06
8343 H 43.019584722182856 116.95793480831958 74.82390520650148 H 0.0 **** 0.06
8344 H 44.274963230105016 118.20197079750727 75.03839332461803 H 0.0 **** 0.06
8345 H 44.29510721587474 116.73406354075851 76.04514222918078 H 0.0 **** 0.06
8346 C 130.87984425993994 121.33094431755599 101.89043615756415 C 0.0 **** -0.24
8347 H 130.96288912038125 121.76540919147214 102.88614386538595 H 0.0 **** 0.06
8348 H 130.39287896308622 122.04266969100242 101.22325036050887 H 0.0 **** 0.06
8349 H 130.28895881152056 120.41644635212472 101.9405551510074 H 0.0 **** 0.06
8350 H 131.87557176070163 121.09908781668449 101.51144353960137 H 0.0 **** 0.06
8351 C 56.4348299615786 80.04595895875582 100.60430857661429 C 0.0 **** -0.24
8352 H 56.57279299459532 79.07063722331878 101.07128265220831 H 0.0 **** 0.06
8353 H 55.37275057243092 80.21426640941718 100.4223440263507 H 0.0 **** 0.06
8354 H 56.97487968620436 80.07563807955017 99.65805781790978 H 0.0 **** 0.06
8355 H 56.818295998998565 80.82250788866679 101.26540431401672 H 0.0 **** 0.06
8356 C 116.6459669419826 30.82533098928539 89.80739241912647 C 0.0 **** -0.24
8357 H 115.97650422069322 30.20363901413009 90.401963541045 H 0.0 **** 0.06
8358 H 117.22188925719703 31.47431887739836 90.46869217451513 H 0.0 **** 0.06
8359 H 116.06163378851952 31.434436005120702 89.11913170025923 H 0.0 **** 0.06
8360 H 117.32538285372814 30.18807138507347 89.24148052576348 H 0.0 **** 0.06
8361 C 85.20401452559781 89.75357266914091 89.09611462956885 C 0.0 **** -0.24
8362 H 84.33427425552868 89.38596936002057 88.55272096575406 H 0.0 **** 0.06
8363 H 85.9803852178731 88.98750225613782 89.10157391905992 H 0.0 **** 0.06
8364 H 84.9181129613681 89.98929512039797 90.12100889989492 H 0.0 **** 0.06
8365 H 85.58387118376743 90.65214362864964 88.60863204515414 H 0.0 **** 0.06
8366 C 83.8089635348818 93.42461097196696 96.46743120584175 C 0.0 **** -0.24
8367 H 84.25029490174228 94.40331521490847 96.27784293243883 H 0.0 **** 0.06
8368 H 82.89847753286952 93.54568514292129 97.05491514482901 H 0.0 **** 0.06
8369 H 84.51875182310695 92.80724191603284 97.01831151127864 H 0.0 **** 0.06
8370 H 83.56912780927269 92.94445042066599 95.51920882170977 H 0.0 **** 0.06
8371 C 60.366937096767856 129.2825347536455 64.19699620886382 C 0.0 **** -0.24
8372 H 60.822823109868125 128.56097421598378 63.51865822557423 H 0.0 **** 0.06
8373 H 61.1475814993521 129.80053484463934 64.75363726020366 H 0.0 **** 0.06
8374 H 59.70870402557716 128.76184605257356 64.89253669314353 H 0.0 **** 0.06
8375 H 59.78878596481536 130.00583291566977 63.62113412246333 H 0.0 **** 0.06
8376 C 82.45032952878871 92.97756699665416 68.06841076745745 C 0.0 **** -0.24
8377 H 82.11104527349904 93.80037985172345 67.43787897938415 H 0.0 **** 0.06
8378 H 81.58657432878893 92.46734667847971 68.4957025690805 H 0.0 **** 0.06
8379 H 83.07518762120519 93.3707532699434 68.87121961615597 H 0.0 **** 0.06
8380 H 83.0283669316294 92.27551007380538 67.4691989472571 H 0.0 **** 0.06
8381 C 102.94873685194597 135.0693264091649 42.113729203719686 C 0.0 **** -0.24
8382 H 102.97523000771378 136.08501543103785 42.50770630903662 H 0.0 **** 0.06
8383 H 103.69255459733392 134.96715432871758 41.322849857634196 H 0.0 **** 0.06
8384 H 101.95748494362982 134.86171768907178 41.71155597729194 H 0.0 **** 0.06
8385 H 103.17133686989348 134.3639362578422 42.91562952427233 H 0.0 **** 0.06
8386 C 104.58533162640556 76.703962699736 84.06464896204912 C 0.0 **** -0.24
8387 H 104.192291939262 75.80499848916594 84.53927218542873 H 0.0 **** 0.06
8388 H 104.7563349238368 77.4688029741713 84.82343574088685 H 0.0 **** 0.06
8389 H 103.86702490622685 77.07204872543798 83.33232650653304 H 0.0 **** 0.06
8390 H 105.52565708632191 76.46976624484569 83.56578514939349 H 0.0 **** 0.06
8391 C 36.14798106366851 36.78535963113299 18.84834929706645 C 0.0 **** -0.24
8392 H 36.78482327200675 37.65069608441485 18.660772769471038 H 0.0 **** 0.06
8393 H 36.74878259502228 35.87651000728414 18.808751782106057 H 0.0 **** 0.06
8394 H 35.3672596049837 36.73852506505483 18.089849765077673 H 0.0 **** 0.06
8395 H 35.69276533052894 36.87744150660396 19.834307010636792 H 0.0 **** 0.06
8396 C 105.85780085135815 98.67291903311795 109.36277828282681 C 0.0 **** -0.24
8397 H 106.83825288664679 98.32336541292442 109.03879039617564 H 0.0 **** 0.06
8398 H 105.59136059162094 98.18708892908042 110.30120874905762 H 0.0 **** 0.06
8399 H 105.11599577428183 98.42911582907993 108.60287747108728 H 0.0 **** 0.06
8400 H 105.88773755984415 99.75264969051582 109.50790425459641 H 0.0 **** 0.06
8401 C 19.47659847536795 119.21392957736909 105.0727964709015 C 0.0 **** -0.24
8402 H 19.931985250491884 119.94243643871098 104.40166256531785 H 0.0 **** 0.06
8403 H 19.39075237216302 118.25444964666673 104.56288102148619 H 0.0 **** 0.06
8404 H 18.484963549095767 119.56051795996645 105.36527000762123 H 0.0 **** 0.06
8405 H 20.09787504320611 119.10005945801754 105.96023830558323 H 0.0 **** 0.06
8406 C 43.955578204762844 58.550716090221044 80.62528974012908 C 0.0 **** -0.24
8407 H 44.755722164090116 59.060051916293986 80.08911376362154 H 0.0 **** 0.06
8408 H 43.23904843932286 58.146559997149666 79.91125406869823 H 0.0 **** 0.06
8409 H 43.45295874467473 59.25818116284131 81.2842426037196 H 0.0 **** 0.06
8410 H 44.37567404480353 57.73815024219202 81.2184990746892 H 0.0 **** 0.06
8411 C 71.64150077090153 61.96468863260024 109.10117463867584 C 0.0 **** -0.24
8412 H 72.07049056045469 62.09320552187532 108.10815240136398 H 0.0 **** 0.06
8413 H 71.20694387255976 62.906702579506856 109.4336743030015 H 0.0 **** 0.06
8414 H 72.42157814736808 61.65761753769466 109.79740352744327 H 0.0 **** 0.06
8415 H 70.86542985544057 61.199361945317875 109.06518695270137 H 0.0 **** 0.06
8416 C 17.186301938957875 62.699931019582806 24.48807225783952 C 0.0 **** -0.24
8417 H 18.01474687999218 62.17156499311584 24.01568744810328 H 0.0 **** 0.06
8418 H 16.269760677021004 62.51109696592475 23.928917637779136 H 0.0 **** 0.06
8419 H 17.393894968189088 63.76875751986739 24.49492712653108 H 0.0 **** 0.06
8420 H 17.066862477833475 62.34599227737675 25.511950489241656 H 0.0 **** 0.06
8421 C 93.90553283383765 66.41856851513566 131.33017170186685 C 0.0 **** -0.24
8422 H 93.42172924955949 66.52851925156124 130.3597754032616 H 0.0 **** 0.06
8423 H 94.42185223850385 67.3441891194094 131.5855476073656 H 0.0 **** 0.06
8424 H 94.62573204291446 65.60108871320216 131.28667492879288 H 0.0 **** 0.06
8425 H 93.15377726187405 66.19975453681137 132.087942131761 H 0.0 **** 0.06
8426 C 15.299045230058056 61.8985550494651 48.278468904042114 C 0.0 **** -0.24
8427 H 15.142381780570133 62.05483215700929 47.21071840165651 H 0.0 **** 0.06
8428 H 15.617627852930298 60.87011432413773 48.45132981171517 H 0.0 **** 0.06
8429 H 14.368274372130344 62.08595345491443 48.81337402190957 H 0.0 **** 0.06
8430 H 16.068285532886136 62.58354206328772 48.63626248799581 H 0.0 **** 0.06
8431 C 3.9846191605193937 73.48495049734959 98.71972588695633 C 0.0 **** -0.24
8432 H 3.9163477830780664 73.86159185435534 97.69929786170144 H 0.0 **** 0.06
8433 H 3.821582467725598 72.40674684560832 98.71955140060325 H 0.0 **** 0.06
8434 H 3.2261539700502695 73.96722805345763 99.33643325644731 H 0.0 **** 0.06
8435 H 4.974152845263038 73.7029975022727 99.12089870731496 H 0.0 **** 0.06
8436 C 20.628570216571347 126.93929767068502 64.509876819541 C 0.0 **** -0.24
8437 H 21.06155324854285 126.15358246418731 65.12853694040959 H 0.0 **** 0.06
8438 H 20.631581818984216 127.87959544646414 65.06250974751046 H 0.0 **** 0.06
8439 H 19.603776342620108 126.67370216908878 64.25020854948684 H 0.0 **** 0.06
8440 H 21.217586552977764 127.05069793064315 63.59914808350457 H 0.0 **** 0.06
8441 C 88.76143982254551 64.3094341207887 17.540766751635537 C 0.0 **** -0.24
8442 H 89.45432647200315 65.0939975310755 17.843699707154506 H 0.0 **** 0.06
8443 H 87.74798594447368 64.58836087250495 17.831275307123853 H 0.0 **** 0.06
8444 H 89.03539660343363 63.37475931097873 18.030797134619974 H 0.0 **** 0.06
8445 H 88.80829477668664 64.18099631584096 16.459702751489246 H 0.0 **** 0.06
8446 C 84.95613992431484 62.95726656786121 39.01716316824006 C 0.0 **** -0.24
8447 H 84.86821875557625 63.14230933731946 37.946303171946774 H 0.0 **** 0.06
8448 H 84.39324386022511 63.71441052703756 39.56315686214657 H 0.0 **** 0.06
8449 H 86.00646592276327 63.0033102819241 39.307921514622905 H 0.0 **** 0.06
8450 H 84.55797019985924 61.96985053663987 39.24834807574619 H 0.0 **** 0.06
8451 C 126.91035533560319 78.97104391964638 14.0568026532477 C 0.0 **** -0.24
8452 H 127.26129335908058 79.94978058792927 14.384778452830574 H 0.0 **** 0.06
8453 H 125.979528247946 79.08679303029794 13.501281138083954 H 0.0 **** 0.06
8454 H 126.73727240541933 78.33687956262611 14.927022159888736 H 0.0 **** 0.06
8455 H 127.66239893221211 78.51128354372537 13.4167410788275 H 0.0 **** 0.06
8456 C 124.61078253279632 85.72850087338178 121.93004427884745 C 0.0 **** -0.24
8457 H 124.83094787125123 85.29367915068599 120.95439915053048 H 0.0 **** 0.06
8458 H 123.90721750700584 86.5523993368123 121.81002909832733 H 0.0 **** 0.06
8459 H 125.53212543301845 86.09782862241295 122.37842386496507 H 0.0 **** 0.06
8460 H 124.17252670987048 84.96713786016247 122.57528784265153 H 0.0 **** 0.06
8461 C 49.007472637557484 86.68243349249224 3.9508960117536276 C 0.0 **** -0.24
8462 H 49.59678108021612 87.56686295686177 4.193756385966651 H 0.0 **** 0.06
8463 H 49.651929003641655 85.80366602352933 3.957586775363268 H 0.0 **** 0.06
8464 H 48.56474353503543 86.80153835764975 2.9618742492943966 H 0.0 **** 0.06
8465 H 48.2164702845309 86.56008283176578 4.690768063829353 H 0.0 **** 0.06
8466 C 18.795188866563876 113.33348446829694 93.88784273298404 C 0.0 **** -0.24
8467 H 17.909508683525843 113.87191422615538 94.22404808263246 H 0.0 **** 0.06
8468 H 18.988026950368635 113.57038550550055 92.84119070595773 H 0.0 **** 0.06
8469 H 18.63042050825399 112.26169027502465 93.99437731560988 H 0.0 **** 0.06
8470 H 19.651788399488225 113.6319337484127 94.49194066692405 H 0.0 **** 0.06
8471 C 8.726038728551543 52.913651612344864 82.30193304408503 C 0.0 **** -0.24
8472 H 9.577847638659364 52.932608506057306 82.98220527397473 H 0.0 **** 0.06
8473 H 7.8329002158910725 52.60858528487746 82.84692678712825 H 0.0 **** 0.06
8474 H 8.920392002326196 52.20547364658154 81.4965270412508 H 0.0 **** 0.06
8475 H 8.574480278950432 53.908224666909874 81.88295151910972 H 0.0 **** 0.06
8476 C 5.29160923909696 21.255323257431996 111.60948865554678 C 0.0 **** -0.24
8477 H 6.33112505908284 21.204700820086828 111.93564100782476 H 0.0 **** 0.06
8478 H 4.753563617180422 21.97532591124434 112.22617265357715 H 0.0 **** 0.06
8479 H 4.831271329441833 20.272102015321593 111.71200259665306 H 0.0 **** 0.06
8480 H 5.25263808462411 21.568320572671894 110.56628734442802 H 0.0 **** 0.06
8481 C 40.24763826785903 91.7528794715012 78.6713499192372 C 0.0 **** -0.24
8482 H 41.06006330232822 91.23595684360816 78.16031407330343 H 0.0 **** 0.06
8483 H 39.52163288406069 91.0228589857053 79.0312435165036 H 0.0 **** 0.06
8484 H 39.759775514936166 92.43797751974817 77.97762902122054 H 0.0 **** 0.06
8485 H 40.64865421117179 92.31413570534548 79.51552687430342 H 0.0 **** 0.06
8486 C 101.53772654414014 47.357108931558315 49.57916664573496 C 0.0 **** -0.24
8487 H 101.71134904304789 46.48385615937677 48.951324444286996 H 0.0 **** 0.06
8488 H 100.46866954981704 47.463052185626324 49.765384967188965 H 0.0 **** 0.06
8489 H 101.90925829318648 48.24790567935848 49.07215047301705 H 0.0 **** 0.06
8490 H 102.06187623325356 47.23398380072895 50.526907838032 H 0.0 **** 0.06
8491 C 64.45097213094812 67.14343630546597 41.5503420283639 C 0.0 **** -0.24
8492 H 63.520224288995564 67.7057069235317 41.61904592151066 H 0.0 **** 0.06
8493 H 64.32548452710063 66.17311313286922 42.0316765310332 H 0.0 **** 0.06
8494 H 65.24743269411408 67.69687210992709 42.0481436550013 H 0.0 **** 0.06
8495 H 64.71125385036146 66.99872997235343 40.50136843068387 H 0.0 **** 0.06
8496 C 70.99716811263343 92.71984600174812 128.8886941259491 C 0.0 **** -0.24
8497 H 70.53639988383463 91.83848924221809 128.44313948163867 H 0.0 **** 0.06
8498 H 71.90749087762907 92.96846065675345 128.34374711099338 H 0.0 **** 0.06
8499 H 71.24224238020906 92.5128762141137 129.9310602965081 H 0.0 **** 0.06
8500 H 70.30217333877161 93.55765164591912 128.83793980213306 H 0.0 **** 0.06
8501 C 93.40468129951137 7.38652310963522 34.95771705557835 C 0.0 **** -0.24
8502 H 93.85343172504611 7.8815811961592885 35.8188335417595 H 0.0 **** 0.06
8503 H 93.89335458634253 7.72935206478553 34.04558614501908 H 0.0 **** 0.06
8504 H 92.34269181422843 7.6263279219305105 34.91372832866654 H 0.0 **** 0.06
8505 H 93.5301419074911 6.307814279230968 35.05312655872889 H 0.0 **** 0.06
8506 C 72.82878087130294 132.55210455642663 83.57100923165503 C 0.0 **** -0.24
8507 H 72.94080567396375 132.89882160153178 84.59825788286821 H 0.0 **** 0.06
8508 H 72.18961738503654 131.6694496191539 83.55266927163908 H 0.0 **** 0.06
8509 H 73.8083702761698 132.30078555648225 83.16395096034901 H 0.0 **** 0.06
8510 H 72.37676646074249 133.3408786101324 82.96987154783727 H 0.0 **** 0.06
8511 C 90.79484065496194 65.3940997029606 129.36683166225794 C 0.0 **** -0.24
8512 H 91.67314591951433 64.85215714293264 129.01613779861165 H 0.0 **** 0.06
8513 H 90.99522097044974 66.46479285253952 129.34385510173655 H 0.0 **** 0.06
8514 H 90.56422997717993 65.08809597910303 130.3875885034257 H 0.0 **** 0.06
8515 H 89.94679015222601 65.16776690086076 128.72012083446992 H 0.0 **** 0.06
8516 C 63.02752315117216 43.92638279354367 41.14565414399323 C 0.0 **** -0.24
8517 H 64.00022716134416 44.232847461548076 40.76112408009191 H 0.0 **** 0.06
8518 H 63.16673988143553 43.30954146490254 42.03443230409204 H 0.0 **** 0.06
8519 H 62.500195712638345 43.35345593775121 40.383734467210246 H 0.0 **** 0.06
8520 H 62.4443100381758 44.81003069506414 41.404313963686874 H 0.0 **** 0.06
8521 C 85.7816681393985 92.5778668340534 114.08362053939868 C 0.0 **** -0.24
8522 H 85.92248590617685 91.50860752320365 114.24188913646051 H 0.0 **** 0.06
8523 H 85.45301512783487 93.04206891339611 115.01405309487507 H 0.0 **** 0.06
8524 H 85.02769236469263 92.7343381045353 113.31238236661343 H 0.0 **** 0.06
8525 H 86.72444706441962 93.02469359890182 113.76714174429782 H 0.0 **** 0.06
8526 C 89.3923333634972 110.40929564424187 89.9515721870506 C 0.0 **** -0.24
8527 H 88.95977951692173 111.31264587792134 89.52154011200889 H 0.0 **** 0.06
8528 H 89.48619693995283 110.53080685959821 91.0306461926449 H 0.0 **** 0.06
8529 H 90.37682766484329 110.23632290462587 89.51694077823731 H 0.0 **** 0.06
8530 H 88.74481299290605 109.55872375864772 89.73601256467362 H 0.0 **** 0.06
8531 C 91.39836001386402 49.984975375748775 17.90363432805163 C 0.0 **** -0.24
8532 H 90.50237708760518 50.44028579032732 18.325094962569935 H 0.0 **** 0.06
8533 H 91.58805252375386 50.40332362680874 16.914380758556632 H 0.0 **** 0.06
8534 H 91.25487820170034 48.90799172220059 17.82199979463538 H 0.0 **** 0.06
8535 H 92.24931877658483 50.189903239731194 18.554073308504975 H 0.0 **** 0.06
8536 C 110.50337500053223 69.7692753386972 71.35840369946033 C 0.0 **** -0.24
8537 H 111.31448184138722 70.48768147989416 71.23846044581421 H 0.0 **** 0.06
8538 H 110.82026444385852 68.9740301600615 72.03348537603011 H 0.0 **** 0.06
8539 H 110.24986701508266 69.34352002684767 70.38808667457954 H 0.0 **** 0.06
8540 H 109.63077845030404 70.27306059298529 71.77363943821939 H 0.0 **** 0.06
8541 C 13.76659229101545 93.29642252776478 93.837082872189 C 0.0 **** -0.24
8542 H 12.689098171268462 93.14954968085073 93.76677054682796 H 0.0 **** 0.06
8543 H 14.233943901774069 93.01598438456278 92.892959470888 H 0.0 **** 0.06
8544 H 14.166347199607877 92.67516721782272 94.63949298260349 H 0.0 **** 0.06
8545 H 13.977394971882966 94.34434903576647 94.05029948256731 H 0.0 **** 0.06
8546 C 9.63437773116081 19.1915361314381 53.98131653258008 C 0.0 **** -0.24
8547 H 9.671228202790555 20.12594667571681 53.42197316373165 H 0.0 **** 0.06
8548 H 10.344377002987862 19.23411923853218 54.807131744765314 H 0.0 **** 0.06
8549 H 9.891484214337275 18.36298746609655 53.32115712649984 H 0.0 **** 0.06
8550 H 8.627812091647822 19.04341331467606 54.373559246368174 H 0.0 **** 0.06
8551 C 74.36472217494384 7.702326530056961 36.59056144666346 C 0.0 **** -0.24
8552 H 73.87552423471666 8.675915033470087 36.56503007314825 H 0.0 **** 0.06
8553 H 75.06120133637623 7.62361696508459 35.755606562246385 H 0.0 **** 0.06
8554 H 73.61351896183203 6.915975960211611 36.51322710499426 H 0.0 **** 0.06
8555 H 74.90816414928432 7.593691376574615 37.529708045064694 H 0.0 **** 0.06
8556 C 102.44840840858916 44.24771714027577 30.15788460468238 C 0.0 **** -0.24
8557 H 102.70545644298136 45.18406853994057 30.65330405715207 H 0.0 **** 0.06
8558 H 103.28485915367077 43.92405640716589 29.537105239552375 H 0.0 **** 0.06
8559 H 101.56775211022011 44.39753078594987 29.532473967133967 H 0.0 **** 0.06
8560 H 102.23586352397695 43.48656601155554 30.908371564672052 H 0.0 **** 0.06
8561 C 124.68365645460894 83.25656499948313 136.84790638663304 C 0.0 **** -0.24
8562 H 125.19801675108326 84.08166041018801 137.3380165706982 H 0.0 **** 0.06
8563 H 124.73628508118252 83.38663532567213 135.76665801949324 H 0.0 **** 0.06
8564 H 123.63932110376717 83.24153897304305 137.16106288691986 H 0.0 **** 0.06
8565 H 125.1589576869939 82.31594896580992 137.12462689139647 H 0.0 **** 0.06
8566 C 32.74514520547208 107.56464774940564 92.46472865290296 C 0.0 **** -0.24
8567 H 33.62401675525833 106.92376098146678 92.5376191753721 H 0.0 **** 0.06
8568 H 31.844746714136967 106.95726871634811 92.55973578090705 H 0.0 **** 0.06
8569 H 32.74264572149521 108.06976264745282 91.49837271672625 H 0.0 **** 0.06
8570 H 32.76939638618017 108.3064731385626 93.26274808671035 H 0.0 **** 0.06
8571 C 127.0279745977937 50.698807363860055 61.956774530362736 C 0.0 **** -0.24
8572 H 127.34852459825541 50.24189884530915 62.89295205491692 H 0.0 **** 0.06
8573 H 127.82538602259312 50.613586533331784 61.2192459248684 H 0.0 **** 0.06
8574 H 126.79948524401917 51.75116600740989 62.12595777733179 H 0.0 **** 0.06
8575 H 126.13673726600668 50.188537741036725 61.59031439255108 H 0.0 **** 0.06
8576 C 78.07013806649637 26.028690143744 21.215766255934284 C 0.0 **** -0.24
8577 H 77.03338379711444 25.781077474763748 21.442377345958164 H 0.0 **** 0.06
8578 H 78.69361247128269 25.807812055914667 22.08328437741241 H 0.0 **** 0.06
8579 H 78.14686263047635 27.087835660571756 20.973103720966662 H 0.0 **** 0.06
8580 H 78.4075849154742 25.435292456418267 20.365125356865207 H 0.0 **** 0.06
8581 C 92.82605578356691 38.02875268990334 94.29251975340645 C 0.0 **** -0.24
8582 H 92.28849195593148 37.29831185528488 94.89732748306695 H 0.0 **** 0.06
8583 H 92.28987345323128 38.97862061987047 94.30809451710844 H 0.0 **** 0.06
8584 H 92.89826891158253 37.66818833823169 93.2668547823095 H 0.0 **** 0.06
8585 H 93.82732257711854 38.170263957136456 94.69947237276854 H 0.0 **** 0.06
8586 C 90.55229889517466 28.285647711932427 16.895007888830094 C 0.0 **** -0.24
8587 H 89.56082958019681 28.443506232677777 17.318845501618085 H 0.0 **** 0.06
8588 H 91.1339530302418 27.647619358532893 17.560734838901396 H 0.0 **** 0.06
8589 H 91.05511355717897 29.246036855989246 16.780089734559 H 0.0 **** 0.06
8590 H 90.45841596239194 27.80555344298341 15.920813061476224 H 0.0 **** 0.06
8591 C 55.454176251315744 128.31394199711136 123.71373446810293 C 0.0 **** -0.24
8592 H 55.31285752855422 128.90690638961212 122.81096692409596 H 0.0 **** 0.06
8593 H 55.36918462468317 128.95859680272093 124.58959961306623 H 0.0 **** 0.06
8594 H 56.44191212356532 127.85439795896454 123.69504914025573 H 0.0 **** 0.06
8595 H 54.691935686573515 127.53565522918876 123.76045842625864 H 0.0 **** 0.06
8596 C 127.83203429259856 11.48344024011099 59.76103254345716 C 0.0 **** -0.24
8597 H 127.88922492944786 10.46382672429932 60.14377348739788 H 0.0 **** 0.06
8598 H 127.98073880315148 11.475082483445604 58.68198013243 H 0.0 **** 0.06
8599 H 128.60578699097837 12.091218192052807 60.23047242390291 H 0.0 **** 0.06
8600 H 126.85217316388187 11.90210125805244 59.9913110653781 H 0.0 **** 0.06
8601 C 58.02236791838152 109.28380045504797 124.61077020091004 C 0.0 **** -0.24
8602 H 57.35235971072777 108.66641631154228 125.2103850379833 H 0.0 **** 0.06
8603 H 57.435790743395785 109.9809492564192 124.0134463591294 H 0.0 **** 0.06
8604 H 58.61081714461025 108.64572447585152 123.95119258518866 H 0.0 **** 0.06
8605 H 58.6898155655403 109.83922056618775 125.26913724815486 H 0.0 **** 0.06
8606 C 84.92847904673972 36.27449244767679 119.44156779701166 C 0.0 **** -0.24
8607 H 84.74110952849396 35.89052479559453 120.44448433416801 H 0.0 **** 0.06
8608 H 84.24665635512501 37.09852053852623 119.2344747652437 H 0.0 **** 0.06
8609 H 84.77044520191204 35.4793731795629 118.712421207098 H 0.0 **** 0.06
8610 H 85.9571434773883 36.628166555002196 119.37500837581968 H 0.0 **** 0.06
8611 C 101.93598425522185 54.26706714707757 70.93723181337077 C 0.0 **** -0.24
8612 H 102.54910489001998 53.92826927023998 71.77239775637082 H 0.0 **** 0.06
8613 H 102.166235339931 53.673336674680996 70.05281753925209 H 0.0 **** 0.06
8614 H 102.14580545526294 55.31679266720897 70.73635529728938 H 0.0 **** 0.06
8615 H 100.88201424047432 54.14820353416587 71.19029258465383 H 0.0 **** 0.06
8616 C 83.62467756027443 70.72200056403551 134.13269058010437 C 0.0 **** -0.24
8617 H 84.63318647316505 70.31088853406672 134.1195509972098 H 0.0 **** 0.06
8618 H 83.08042694930828 70.37903997095223 133.25283015909176 H 0.0 **** 0.06
8619 H 83.67662377657784 71.81115827040414 134.126351427179 H 0.0 **** 0.06
8620 H 83.10711227734234 70.38831260423363 135.0331236277158 H 0.0 **** 0.06
8621 C 134.38398966031707 84.70820816026699 82.74141425063968 C 0.0 **** -0.24
8622 H 135.43211407887543 84.45643956317474 82.57883549544594 H 0.0 **** 0.06
8623 H 134.2011783998226 84.8310026256346 83.80932513765687 H 0.0 **** 0.06
8624 H 133.75456214816228 83.90674307381715 82.35475059728755 H 0.0 **** 0.06
8625 H 134.14789765294765 85.63767561572786 82.22263114877443 H 0.0 **** 0.06
8626 C 81.72671870409295 81.56934426846271 128.56878975701687 C 0.0 **** -0.24
8627 H 82.6615988741815 81.02316901584561 128.68663980811948 H 0.0 **** 0.06
8628 H 80.89080822118592 80.86954461027523 128.59966411265657 H 0.0 **** 0.06
8629 H 81.72850155430774 82.09156882283514 127.61170071847236 H 0.0 **** 0.06
8630 H 81.62476123084309 82.29352584533018 129.377756278525 H 0.0 **** 0.06
8631 C 81.94508162643706 79.64853534105701 95.4015441402774 C 0.0 **** -0.24
8632 H 81.20875645559101 78.99136982704961 95.86331004763986 H 0.0 **** 0.06
8633 H 81.4401174060203 80.3481072061972 94.73536743166659 H 0.0 **** 0.06
8634 H 82.65651921245237 79.05195053978363 94.83118183086373 H 0.0 **** 0.06
8635 H 82.47467972862114 80.20119040977424 96.1771015231077 H 0.0 **** 0.06
8636 C 14.283697324607509 46.36872217167553 115.32896281381218 C 0.0 **** -0.24
8637 H 13.671413812863726 46.62719996778816 114.46476421838383 H 0.0 **** 0.06
8638 H 15.250670734094292 46.86525543006769 115.2502659563294 H 0.0 **** 0.06
8639 H 14.430281258487327 45.28854319942218 115.35900694530122 H 0.0 **** 0.06
8640 H 13.780948524729531 46.692839516776985 116.2401645765544 H 0.0 **** 0.06
8641 C 37.09311622895387 38.068130554652555 126.12623992413995 C 0.0 **** -0.24
8642 H 36.9098455347458 38.88731234311791 126.82100756660964 H 0.0 **** 0.06
8643 H 37.97822803484795 38.28885213122618 125.52946429890494 H 0.0 **** 0.06
8644 H 36.230486735101074 37.95035178857546 125.4695401191218 H 0.0 **** 0.06
8645 H 37.25191627849976 37.14601776600426 126.68516353428333 H 0.0 **** 0.06
8646 C 8.96889445232155 13.57002248118934 17.80302971430467 C 0.0 **** -0.24
8647 H 8.81669941017147 14.647213507722995 17.87591494204679 H 0.0 **** 0.06
8648 H 8.7082823829709 13.23448421652849 16.79850019618482 H 0.0 **** 0.06
8649 H 8.335407983207528 13.064756724054579 18.53146188595801 H 0.0 **** 0.06
8650 H 10.013428564243679 13.336184558605176 18.005603935264617 H 0.0 **** 0.06
8651 C 52.23356925990001 126.08923997516985 59.2651765778412 C 0.0 **** -0.24
8652 H 53.212568783522755 126.41445956344336 58.910820412994354 H 0.0 **** 0.06
8653 H 51.76461084622012 126.89689519576359 59.82697734412076 H 0.0 **** 0.06
8654 H 52.35148708300501 125.21862960753901 59.9089816380054 H 0.0 **** 0.06
8655 H 51.608130275983385 125.82829204899497 58.4114943675155 H 0.0 **** 0.06
8656 C 7.836479571051999 44.98083688045867 0.8463764956975481 C 0.0 **** -0.24
8657 H 7.254202100462617 45.85044859623956 1.1522956155464072 H 0.0 **** 0.06
8658 H 8.848143750365448 45.06288223383228 1.244551381441557 H 0.0 **** 0.06
8659 H 7.875918077374344 44.93473708561815 -0.24251355080032155 H 0.0 **** 0.06
8660 H 7.366257997741776 44.07542226478906 1.2313455244708855 H 0.0 **** 0.06
8661 C 28.554386595708166 116.10069325338031 37.79752444328105 C 0.0 **** -0.24
8662 H 29.31545911995343 115.43324647996792 38.20379351259845 H 0.0 **** 0.06
8663 H 27.660720863580224 116.0526590407137 38.41948129094499 H 0.0 **** 0.06
8664 H 28.30845465104963 115.79277520131382 36.781352703699724 H 0.0 **** 0.06
8665 H 28.93641764375991 117.1211436528032 37.785346979108425 H 0.0 **** 0.06
8666 C 59.86093014245117 112.2029049905887 16.31673632546307 C 0.0 **** -0.24
8667 H 59.03604805804781 112.3555427089556 15.620692978848098 H 0.0 **** 0.06
8668 H 59.70545251811731 111.274281753188 16.86709594765864 H 0.0 **** 0.06
8669 H 59.90497889245697 113.0379601248963 17.016467508292948 H 0.0 **** 0.06
8670 H 60.797272090835406 112.1448348924371 15.76269604411877 H 0.0 **** 0.06
8671 C 87.26322330823736 37.51003921997518 101.4261091256854 C 0.0 **** -0.24
8672 H 86.59792144155581 38.32264201259107 101.72053103461366 H 0.0 **** 0.06
8673 H 86.94247544789846 37.10835680549126 100.46482450664445 H 0.0 **** 0.06
8674 H 87.22934078071886 36.722117541198465 102.17915395036621 H 0.0 **** 0.06
8675 H 88.28168599276346 37.88804298425405 101.3416109673872 H 0.0 **** 0.06
8676 C 2.6913558297763203 1.6220057409982402 122.80824277746395 C 0.0 **** -0.24
8677 H 1.6223795422946559 1.703962874929907 122.61023820317159 H 0.0 **** 0.06
8678 H 2.958743928715286 2.284261314326958 123.63162435298845 H 0.0 **** 0.06
8679 H 3.2490481271307026 1.9072857921573387 121.91643638693152 H 0.0 **** 0.06
8680 H 2.93325653687085 0.5939334882160985 123.07471318194648 H 0.0 **** 0.06
8681 C 68.24785539359273 87.76497554598956 21.58867664477208 C 0.0 **** -0.24
8682 H 67.46688364207967 87.00802640892272 21.519040646953457 H 0.0 **** 0.06
8683 H 68.65706292158993 87.77402278944794 22.59908172414425 H 0.0 **** 0.06
8684 H 67.82602841176438 88.74379835664456 21.357864989143053 H 0.0 **** 0.06
8685 H 69.04170875558354 87.53476126873647 20.877159708304326 H 0.0 **** 0.06
8686 C 44.32305658691169 88.16315259021714 78.86225808816701 C 0.0 **** -0.24
8687 H 44.248698990381456 87.07590300301666 78.89399718247148 H 0.0 **** 0.06
8688 H 44.21775433921542 88.50403403876922 77.8325142772822 H 0.0 **** 0.06
8689 H 45.29426179171048 88.47175574326876 79.24972373727894 H 0.0 **** 0.06
8690 H 43.53327098338579 88.59954864702605 79.47262533932133 H 0.0 **** 0.06
8691 C 95.94502106093478 120.28269950165279 70.85243014756384 C 0.0 **** -0.24
8692 H 95.87113672850359 119.70401492701485 71.77346128435528 H 0.0 **** 0.06
8693 H 96.97174251218871 120.25200898375687 70.48645575123845 H 0.0 **** 0.06
8694 H 95.6589590233092 121.31531722142023 71.049405178889 H 0.0 **** 0.06
8695 H 95.27919083209159 119.8569958596946 70.10241112771132 H 0.0 **** 0.06
8696 C 68.24193953000216 58.05931419386806 135.1802800555007 C 0.0 **** -0.24
8697 H 67.79425721081998 58.107591939389195 134.18723982558936 H 0.0 **** 0.06
8698 H 68.86200227086715 58.9408107846436 135.340938026554 H 0.0 **** 0.06
8699 H 68.85769278213286 57.162316540752045 135.25691082867897 H 0.0 **** 0.06
8700 H 67.45413927119307 58.025260957964235 135.9325301276898 H 0.0 **** 0.06
8701 C 25.88823241695536 71.63409413862661 34.26494451383428 C 0.0 **** -0.24
8702 H 26.475823004248184 70.78649809798327 34.61730129773356 H 0.0 **** 0.06
8703 H 24.89307487411861 71.29206199546189 33.97871978924202 H 0.0 **** 0.06
8704 H 26.379254257277978 72.0832472255646 33.401365830592766 H 0.0 **** 0.06
8705 H 25.804782569072756 72.37409493451298 35.06072525894797 H 0.0 **** 0.06
8706 C 79.76255160140906 116.20870625318412 122.70315503264567 C 0.0 **** -0.24
8707 H 78.97944841963431 115.4767292149987 122.50607871797018 H 0.0 **** 0.06
8708 H 79.31403137675704 117.12284176814887 123.09377888034783 H 0.0 **** 0.06
8709 H 80.2942266084778 116.43050586541486 121.77785741660642 H 0.0 **** 0.06
8710 H 80.46079854956633 115.80368565425326 123.43631096577752 H 0.0 **** 0.06
8711 C 7.24147259962356 20.63904644058755 97.38236214630376 C 0.0 **** -0.24
8712 H 6.822362148038955 21.27272941368824 98.1641251492714 H 0.0 **** 0.06
8713 H 8.26173948042764 20.3622843227364 97.64867643565259 H 0.0 **** 0.06
8714 H 7.246478929386953 21.18199566513016 96.4378638232943 H 0.0 **** 0.06
8715 H 6.635589713025617 19.738896761640092 97.28098402399114 H 0.0 **** 0.06
8716 C 31.58853275451645 62.14884883502168 70.26627347738122 C 0.0 **** -0.24
8717 H 32.09484126557368 62.281028746028824 71.22215694214938 H 0.0 **** 0.06
8718 H 31.908503156400002 61.20963963164078 69.81339143388374 H 0.0 **** 0.06
8719 H 31.841459258448594 62.97576427065587 69.60317086219 H 0.0 **** 0.06
8720 H 30.51039046148489 62.1279050042983 70.42550795106439 H 0.0 **** 0.06
8721 C 70.25038139291745 6.343429138440001 5.395949245442182 C 0.0 **** -0.24
8722 H 70.73024889937133 7.216112015687571 5.840347592787992 H 0.0 **** 0.06
8723 H 70.65838603540313 6.173860405472084 4.399433954115068 H 0.0 **** 0.06
8724 H 69.1772463400482 6.515464521216387 5.324787719899803 H 0.0 **** 0.06
8725 H 70.43782128500604 5.46935355993574 6.018899637014215 H 0.0 **** 0.06
8726 C 127.21737484050838 66.57541763451655 99.37493646374446 C 0.0 **** -0.24
8727 H 126.36469923394006 66.72346753924845 100.03672460473541 H 0.0 **** 0.06
8728 H 127.15564603799406 67.27348838952787 98.54038340124163 H 0.0 **** 0.06
8729 H 127.20984552343654 65.55278727080474 98.99558229374009 H 0.0 **** 0.06
8730 H 128.14010314862742 66.75018356927549 99.92820800490242 H 0.0 **** 0.06
8731 C 119.96618619202684 12.876023364932891 38.1581620190681 C 0.0 **** -0.24
8732 H 119.69306265892135 11.866160550874454 38.46169887438086 H 0.0 **** 0.06
8733 H 120.65772655437497 12.827924852617429 37.31534077387087 H 0.0 **** 0.06
8734 H 120.44477825418774 13.389031555648799 38.992523037626 H 0.0 **** 0.06
8735 H 119.07002150237236 13.42136120349285 37.861622698997195 H 0.0 **** 0.06
8736 C 135.52157888261274 54.344844938417054 134.5420749196971 C 0.0 **** -0.24
8737 H 134.45963360001133 54.169546149320354 134.71172035300853 H 0.0 **** 0.06
8738 H 135.86359219790495 53.73012259957869 133.7090902687163 H 0.0 **** 0.06
8739 H 136.08125166726015 54.08269384409829 135.44085983115042 H 0.0 **** 0.06
8740 H 135.68423339670653 55.39743162628355 134.30838735637045 H 0.0 **** 0.06
8741 C 111.55361204312189 120.60502728202971 122.44654092546546 C 0.0 **** -0.24
8742 H 112.59100911786084 120.74798255860011 122.74935468075086 H 0.0 **** 0.06
8743 H 111.34185789155558 119.5382408068267 122.37041022385479 H 0.0 **** 0.06
8744 H 111.38974162551244 121.07835630842737 121.47873972973271 H 0.0 **** 0.06
8745 H 110.89341131908617 121.05509012690277 123.187078866404 H 0.0 **** 0.06
8746 C 74.8539124557227 111.89932706314826 33.44185622546145 C 0.0 **** -0.24
8747 H 74.45225352318926 110.93464737673119 33.75022486294894 H 0.0 **** 0.06
8748 H 75.32400804730042 111.80077515747905 32.46235236508594 H 0.0 **** 0.06
8749 H 75.59562772933435 112.23270991969741 34.16804518876995 H 0.0 **** 0.06
8750 H 74.04629890336531 112.6293192629947 33.385209858100914 H 0.0 **** 0.06
8751 C 71.32083586128584 106.79461506250901 74.2225138811068 C 0.0 **** -0.24
8752 H 71.06866669185672 106.37080689296553 75.19495433768583 H 0.0 **** 0.06
8753 H 71.31106239340988 106.00623101405283 73.46938961012177 H 0.0 **** 0.06
8754 H 72.31345846727294 107.2415896390081 74.26834083196161 H 0.0 **** 0.06
8755 H 70.59029484130934 107.55846124826975 73.95841952559317 H 0.0 **** 0.06
8756 C 115.8767639932143 60.097427404927714 14.230054835736212 C 0.0 **** -0.24
8757 H 114.80825634120828 60.29538481934361 14.318374420442524 H 0.0 **** 0.06
8758 H 116.32891144194446 60.09335806522009 15.222090726963074 H 0.0 **** 0.06
8759 H 116.34121140623509 60.87478368664205 13.622282729659162 H 0.0 **** 0.06
8760 H 116.02864901127083 59.12753559353894 13.757059224045065 H 0.0 **** 0.06
8761 C 65.44927266003305 115.54408134153738 6.07556319427664 C 0.0 **** -0.24
8762 H 64.78768590136471 115.33555643117015 6.916075159052156 H 0.0 **** 0.06
8763 H 64.98737895766718 116.28776074720724 5.425683789256993 H 0.0 **** 0.06
8764 H 65.62211081325545 114.62698107217179 5.51285713731221 H 0.0 **** 0.06
8765 H 66.39928453141076 115.92725528314267 6.447943688363409 H 0.0 **** 0.06
8766 C 53.8472084906783 36.8248515849169 47.48088002292124 C 0.0 **** -0.24
8767 H 54.58502136301715 37.0198348553302 46.70331478440474 H 0.0 **** 0.06
8768 H 53.72369659540506 37.71720333715706 48.09521727839039 H 0.0 **** 0.06
8769 H 54.18755702767429 35.99779034022933 48.10586781704575 H 0.0 **** 0.06
8770 H 52.89466393806775 36.56440122471636 47.021001255909496 H 0.0 **** 0.06
8771 C 29.253521139268628 125.4577318553718 44.1843803308856 C 0.0 **** -0.24
8772 H 29.923848939326376 125.63151348122858 43.3419495022425 H 0.0 **** 0.06
8773 H 28.28007476290685 125.89956914586499 43.96937552486037 H 0.0 **** 0.06
8774 H 29.6712151546198 125.91630763541188 45.07990697016095 H 0.0 **** 0.06
8775 H 29.140484983447607 124.38604507628783 44.34277621779569 H 0.0 **** 0.06
8776 C 80.80095505077887 104.52919339729415 76.85637461353122 C 0.0 **** -0.24
8777 H 81.04608858090681 104.28110251808239 75.82279606579823 H 0.0 **** 0.06
8778 H 81.68896875443895 104.40932601365246 77.4778467235268 H 0.0 **** 0.06
8779 H 80.0153052017433 103.86275711811732 77.21253618986498 H 0.0 **** 0.06
8780 H 80.45456697891694 105.56117676720943 76.90968199075598 H 0.0 **** 0.06
8781 C 80.31656606714324 98.26905646823191 20.496563243567294 C 0.0 **** -0.24
8782 H 80.50198288404445 97.70725887567198 19.581292730033255 H 0.0 **** 0.06
8783 H 80.32817601535197 97.58929722771421 21.34882181156175 H 0.0 **** 0.06
8784 H 79.3431636401049 98.75521402587528 20.4329896893978 H 0.0 **** 0.06
8785 H 81.09158986722628 99.02442656043767 20.622734363519612 H 0.0 **** 0.06
8786 C 60.084108393425666 108.80044312945924 128.01742247534492 C 0.0 **** -0.24
8787 H 60.48961488103541 107.81896490126091 128.2631927737511 H 0.0 **** 0.06
8788 H 60.85091562495511 109.55908756513205 128.17128705976995 H 0.0 **** 0.06
8789 H 59.229738083020536 109.0108153633053 128.66045042081942 H 0.0 **** 0.06
8790 H 59.76581074089606 108.81083364985 126.97552485516366 H 0.0 **** 0.06
8791 C 44.164124744947756 53.872037818753455 66.17956203239459 C 0.0 **** -0.24
8792 H 44.946237225861935 54.49696911169933 66.61127262041614 H 0.0 **** 0.06
8793 H 43.35746995305471 53.74833367018357 66.9027317443963 H 0.0 **** 0.06
8794 H 44.57754344791604 52.89602243427392 65.92597379444186 H 0.0 **** 0.06
8795 H 43.775878665160604 54.34764695660378 65.27923377845357 H 0.0 **** 0.06
8796 C 49.21137687476735 60.791378713846825 96.65817463969341 C 0.0 **** -0.24
8797 H 48.36246196342651 61.11773632005122 96.05716443941023 H 0.0 **** 0.06
8798 H 50.09324599850868 61.37229362673588 96.38594710946523 H 0.0 **** 0.06
8799 H 49.401371280924835 59.734337019245686 96.47426704286366 H 0.0 **** 0.06
8800 H 48.98765773071182 60.9432385163214 97.71430220113675 H 0.0 **** 0.06
8801 C 8.692211708112893 89.34581150156475 92.64346656625182 C 0.0 **** -0.24
8802 H 8.666840494064104 88.96505940858695 93.66407431059477 H 0.0 **** 0.06
8803 H 8.140712074998305 88.66898590664758 91.98972930956094 H 0.0 **** 0.06
8804 H 9.726009366708183 89.41528767053055 92.30734091608741 H 0.0 **** 0.06
8805 H 8.233228791624015 90.33432038686102 92.613500648767 H 0.0 **** 0.06
8806 C 63.20367810647289 51.67662039314956 117.8005184460219 C 0.0 **** -0.24
8807 H 64.22773301212963 51.6937629743623 117.42821518213145 H 0.0 **** 0.06
8808 H 62.53804409973948 52.10406553259833 117.05041772023412 H 0.0 **** 0.06
8809 H 63.14138252231233 52.26264575945527 118.71834068715452 H 0.0 **** 0.06
8810 H 62.90801853678836 50.64804282962274 118.00590016805313 H 0.0 **** 0.06
8811 C 3.6983630286173934 4.934485026027062 54.46924955306744 C 0.0 **** -0.24
8812 H 3.668784674270057 5.1845075712772655 53.407710100528504 H 0.0 **** 0.06
8813 H 4.229670858356371 5.716053074205604 55.01164369212431 H 0.0 **** 0.06
8814 H 4.213145911200058 3.983161098526864 54.60362748797998 H 0.0 **** 0.06
8815 H 2.6798854664801297 4.854447208954184 54.85135495669127 H 0.0 **** 0.06
8816 C 4.783131397951706 31.120643383044012 59.57118579841877 C 0.0 **** -0.24
8817 H 4.977891760749806 32.07933834651095 59.0914104461032 H 0.0 **** 0.06
8818 H 5.413614053392198 30.35347493497244 59.1189321410893 H 0.0 **** 0.06
8819 H 3.734717106490926 30.853936307803167 59.43930762532334 H 0.0 **** 0.06
8820 H 5.008545525329648 31.194839165949872 60.63510286521486 H 0.0 **** 0.06
8821 C 3.175520067864447 63.26803799611491 57.7225113440566 C 0.0 **** -0.24
8822 H 2.109989217306701 63.167125310936825 57.51741459802925 H 0.0 **** 0.06
8823 H 3.653933780742154 63.80654856679574 56.90447910507277 H 0.0 **** 0.06
8824 H 3.6224125917712513 62.277184627522075 57.815531938829 H 0.0 **** 0.06
8825 H 3.315313432736083 63.81816225864853 58.65271946231026 H 0.0 **** 0.06
8826 C 87.04474146761771 30.826366127230017 36.38233822036548 C 0.0 **** -0.24
8827 H 86.27405848806046 30.88184783996337 35.613361889045734 H 0.0 **** 0.06
8828 H 86.90723900717029 29.917953974588613 36.9682507259522 H 0.0 **** 0.06
8829 H 86.96844473352789 31.695453418165528 37.035051869442555 H 0.0 **** 0.06
8830 H 88.0265716714448 30.81003587477207 35.91097449821743 H 0.0 **** 0.06
8831 C 97.46877013171945 135.6925213389282 127.29638411996348 C 0.0 **** -0.24
8832 H 97.18878450804556 134.98441594872298 126.51708903941437 H 0.0 **** 0.06
8833 H 97.46933996777608 135.18778030853053 128.2626492205676 H 0.0 **** 0.06
8834 H 96.75073097056242 136.5128365260992 127.31584830359856 H 0.0 **** 0.06
8835 H 98.46410080830736 136.08500040191592 127.09064631964429 H 0.0 **** 0.06
8836 C 100.7697698496305 38.42983267484391 85.60750391016882 C 0.0 **** -0.24
8837 H 100.99495055838685 37.80695888267738 84.74201506973958 H 0.0 **** 0.06
8838 H 99.70227164427388 38.381080134418085 85.82118313089984 H 0.0 **** 0.06
8839 H 101.0522058690326 39.46134388063166 85.39527143678578 H 0.0 **** 0.06
8840 H 101.33049383732799 38.07029533272362 86.47007306833973 H 0.0 **** 0.06
8841 C 116.86567365097383 15.10026250077884 45.94500440480715 C 0.0 **** -0.24
8842 H 117.30222448921438 14.479057453958276 46.72739800198487 H 0.0 **** 0.06
8843 H 117.25510111959173 16.115333206030556 46.02707024553537 H 0.0 **** 0.06
8844 H 115.78127626445331 15.116851721147526 46.05933384791487 H 0.0 **** 0.06
8845 H 117.12216495567066 14.689765921554653 44.969262251096815 H 0.0 **** 0.06
8846 C 44.49197522009145 112.48815496361092 66.49075196278065 C 0.0 **** -0.24
8847 H 43.992519979507485 111.87449755297826 67.24010173528654 H 0.0 **** 0.06
8848 H 45.54447408078731 112.21013905412346 66.43580323696995 H 0.0 **** 0.06
8849 H 44.40738231701578 113.53965672050026 66.76814200323338 H 0.0 **** 0.06
8850 H 44.02206838057752 112.32927293654396 65.5203695089202 H 0.0 **** 0.06
8851 C 38.58169759873161 91.30085654696387 125.34666467150824 C 0.0 **** -0.24
8852 H 38.962656649239904 90.81203898134675 124.44963252005869 H 0.0 **** 0.06
8853 H 37.79380084553682 92.0030718402154 125.07078691263489 H 0.0 **** 0.06
8854 H 39.39114792665646 91.83812190805554 125.84014428308407 H 0.0 **** 0.06
8855 H 38.17656894694562 90.5499433365706 126.0250489229206 H 0.0 **** 0.06
8856 C 82.30496138937158 101.64927923961966 30.22011588329792 C 0.0 **** -0.24
8857 H 81.99089146740349 102.46439117762677 29.567918299207918 H 0.0 **** 0.06
8858 H 83.11033262371603 101.09151267934733 29.741218456096078 H 0.0 **** 0.06
8859 H 81.46103185176241 100.98514821316687 30.402875045997746 H 0.0 **** 0.06
8860 H 82.6576992634516 102.05798057235323 31.166929099313563 H 0.0 **** 0.06
8861 C 0.37350538733938166 134.36071173541393 102.06851601283932 C 0.0 **** -0.24
8862 H 1.1678617383041363 135.0483536911699 102.358052834109 H 0.0 **** 0.06
8863 H 0.607178920754265 133.9215822665916 101.09837474742409 H 0.0 **** 0.06
8864 H -0.5699404386668689 134.90358458083625 102.00344564963757 H 0.0 **** 0.06
8865 H 0.2876969477578939 133.57052394805254 102.8139321395293 H 0.0 **** 0.06
8866 C 41.267031312118036 17.15654966080828 80.73440680503677 C 0.0 **** -0.24
8867 H 40.87240123003926 16.206030964252278 80.37469248598654 H 0.0 **** 0.06
8868 H 42.31327886035575 17.032121335901763 81.01412046821764 H 0.0 **** 0.06
8869 H 40.6941727590185 17.481471655306137 81.60235138252264 H 0.0 **** 0.06
8870 H 41.18692718299636 17.904310243192924 79.94543183770753 H 0.0 **** 0.06
8871 C 0.4571644817882259 63.69955011304708 94.26055770414712 C 0.0 **** -0.24
8872 H 0.3495460222304416 62.80325308028921 94.8723607856047 H 0.0 **** 0.06
8873 H 0.9291672413927472 64.4863156453454 94.84967780104175 H 0.0 **** 0.06
8874 H -0.5262964177785534 64.03246649525596 93.9289609642822 H 0.0 **** 0.06
8875 H 1.0764079950501753 63.47346402194313 93.39205344483565 H 0.0 **** 0.06
8876 C 32.321256894765554 41.807158310005235 118.41377280033541 C 0.0 **** -0.24
8877 H 32.741918600666395 42.67716836016703 117.91042474643805 H 0.0 **** 0.06
8878 H 32.954249161566224 40.93880609995247 118.2260592499635 H 0.0 **** 0.06
8879 H 31.318899948514684 41.6158913227832 118.0307812229994 H 0.0 **** 0.06
8880 H 32.27122634699637 41.99563524884394 119.48606121162902 H 0.0 **** 0.06
8881 C 100.2734088151434 51.71809171094475 50.94579082520221 C 0.0 **** -0.24
8882 H 99.31563293281444 51.198187341321756 50.91720964732616 H 0.0 **** 0.06
8883 H 101.03317195915467 51.10851347464762 50.45637646879942 H 0.0 **** 0.06
8884 H 100.56037059945287 51.893796671695156 51.982504265811315 H 0.0 **** 0.06
8885 H 100.18389508661097 52.67320159477208 50.428024976027274 H 0.0 **** 0.06
8886 C 119.02468510797797 84.0369886319552 13.958565953005746 C 0.0 **** -0.24
8887 H 119.05105439163157 84.3778478194623 14.993458085938698 H 0.0 **** 0.06
8888 H 119.99389888012165 83.61789564483502 13.689363863075585 H 0.0 **** 0.06
8889 H 118.79686966720993 84.87899865235232 13.304288219856346 H 0.0 **** 0.06
8890 H 118.25529463002815 83.27265884584394 13.848183238585023 H 0.0 **** 0.06
8891 C 121.15398739854984 32.068487134631255 17.2108500286663 C 0.0 **** -0.24
8892 H 120.80460322686938 31.964631002984135 18.237573270828932 H 0.0 **** 0.06
8893 H 122.21065065453647 32.33805387157787 17.211656678760335 H 0.0 **** 0.06
8894 H 120.58003173774122 32.84889010559465 16.709763977313173 H 0.0 **** 0.06
8895 H 121.01991033331399 31.124321046488546 16.683606471635358 H 0.0 **** 0.06
8896 C 133.87344133388822 4.012534476776153 23.01351934359755 C 0.0 **** -0.24
8897 H 133.374492953341 3.379713410475631 23.74817036332933 H 0.0 **** 0.06
8898 H 134.44660717600814 3.3895806951795464 22.32700091281933 H 0.0 **** 0.06
8899 H 134.54451312654234 4.7029905749176635 23.524699448832607 H 0.0 **** 0.06
8900 H 133.12737011319143 4.5775512394531575 22.45534569503433 H 0.0 **** 0.06
8901 C 59.4299670586244 52.85094852117473 69.55650838158758 C 0.0 **** -0.24
8902 H 58.96429379132604 51.86972291113092 69.46316072749724 H 0.0 **** 0.06
8903 H 59.73106471233598 53.01369361921027 70.59189157009638 H 0.0 **** 0.06
8904 H 58.717814910745204 53.62109905920967 69.25986627814649 H 0.0 **** 0.06
8905 H 60.306694820090414 52.8992784951479 68.91111495061034 H 0.0 **** 0.06
8906 C 29.838715716967414 40.85974018996427 36.61494191692987 C 0.0 **** -0.24
8907 H 30.04810611821999 40.84179938398046 35.545151342522864 H 0.0 **** 0.06
8908 H 28.761038781546922 40.90892687534708 36.772352771258554 H 0.0 **** 0.06
8909 H 30.312252624440447 41.73334846307483 37.06307186578168 H 0.0 **** 0.06
8910 H 30.233452832600072 39.95510775406052 37.077473891818194 H 0.0 **** 0.06
8911 C 67.88872009204954 3.00789380511884 81.27420359578363 C 0.0 **** -0.24
8912 H 67.49715308786986 2.5877506194254494 82.2013196113027 H 0.0 **** 0.06
8913 H 67.49302623210843 4.014382258735306 81.13653935112427 H 0.0 **** 0.06
8914 H 67.58738297103139 2.3801196851112643 80.43623187240426 H 0.0 **** 0.06
8915 H 68.97671767298104 3.0482045031385034 81.32544194183484 H 0.0 **** 0.06
8916 C 13.657960280383463 121.68613533099244 134.51933121205596 C 0.0 **** -0.24
8917 H 12.796087468243439 122.16373616537297 134.98541356873903 H 0.0 **** 0.06
8918 H 14.03950437952281 120.90485746313682 135.17576475676603 H 0.0 **** 0.06
8919 H 14.435925801892523 122.43024380374216 134.34809366706364 H 0.0 **** 0.06
8920 H 13.359153256698498 121.24815836593766 133.5667853502855 H 0.0 **** 0.06
8921 C 89.6990033433693 36.1330621276046 131.5236061003548 C 0.0 **** -0.24
8922 H 90.42436359834868 35.3246537189647 131.4310727912926 H 0.0 **** 0.06
8923 H 89.90423653666467 36.89331266020312 130.769633589017 H 0.0 **** 0.06
8924 H 89.77448613118895 36.57585145147746 132.51699879602432 H 0.0 **** 0.06
8925 H 88.69434245838976 35.737050673287314 131.37702344327664 H 0.0 **** 0.06
8926 C 11.493053611253856 120.7392364892001 79.02737732701543 C 0.0 **** -0.24
8927 H 10.489343380825915 120.37631276996385 78.80612812579034 H 0.0 **** 0.06
8928 H 11.536285729273573 121.81474742823127 78.85806333821513 H 0.0 **** 0.06
8929 H 12.211790686307154 120.23974413083167 78.37658278758609 H 0.0 **** 0.06
8930 H 11.735178376531223 120.52411891883091 80.06786234050958 H 0.0 **** 0.06
8931 C 84.54577034398511 13.515476988975763 136.48470888467017 C 0.0 **** -0.24
8932 H 83.95436374051104 12.788632880484812 137.04247494899192 H 0.0 **** 0.06
8933 H 85.13608800565913 14.11232431784552 137.17951702827017 H 0.0 **** 0.06
8934 H 83.87966650504319 14.167792251336266 135.92034861144583 H 0.0 **** 0.06
8935 H 85.21037657058645 12.991631425468512 135.79790146048373 H 0.0 **** 0.06
8936 C 46.54539817240921 120.21217457293328 91.28633032616064 C 0.0 **** -0.24
8937 H 46.230286197173285 121.13423072938619 91.77315870896045 H 0.0 **** 0.06
8938 H 46.72898074027803 120.40307090896559 90.22866302306814 H 0.0 **** 0.06
8939 H 45.76238265062868 119.46081022219246 91.3893321453225 H 0.0 **** 0.06
8940 H 47.46030031640511 119.84840562021571 91.75450903054661 H 0.0 **** 0.06
8941 C 55.87677256044678 131.9498579417466 4.089006167607948 C 0.0 **** -0.24
8942 H 55.30797792626086 132.47255875048836 3.3200486996205143 H 0.0 **** 0.06
8943 H 55.71845193627199 132.4358524053431 5.051759004697658 H 0.0 **** 0.06
8944 H 56.93712945448624 131.9774436028353 3.8380014838319028 H 0.0 **** 0.06
8945 H 55.54397047290186 130.91319111916235 4.145404351377948 H 0.0 **** 0.06
8946 C 23.931599371077112 101.65550666172689 15.321228097378693 C 0.0 **** -0.24
8947 H 23.260618965819845 101.80783491966031 16.166964750617872 H 0.0 **** 0.06
8948 H 24.55989343951299 102.53738449188182 15.191616478315588 H 0.0 **** 0.06
8949 H 23.344550832846977 101.49005812815807 14.417435038884193 H 0.0 **** 0.06
8950 H 24.560654484853274 100.7858279487956 15.509726473720065 H 0.0 **** 0.06
8951 C 15.550259841602724 111.19942853926813 64.33413903040554 C 0.0 **** -0.24
8952 H 14.482760908020026 111.42020132578187 64.34034193875993 H 0.0 **** 0.06
8953 H 15.703960028106792 110.14604175010618 64.5667084854457 H 0.0 **** 0.06
8954 H 16.05283427758974 111.81408989480701 65.08004945028827 H 0.0 **** 0.06
8955 H 15.959538911055091 111.41715324009647 63.3479850729243 H 0.0 **** 0.06
8956 C 118.55781674141699 96.5373340829606 82.59172723384148 C 0.0 **** -0.24
8957 H 117.66586630737623 96.81320522034014 83.15361206887354 H 0.0 **** 0.06
8958 H 119.44393984571877 96.74059347797849 83.19369779876615 H 0.0 **** 0.06
8959 H 118.60211935111354 97.1207658320105 81.6714415230714 H 0.0 **** 0.06
8960 H 118.51944033341317 95.47614293117782 82.34710380520929 H 0.0 **** 0.06
8961 C 100.39313788487352 38.17248667204662 81.90821602924609 C 0.0 **** -0.24
8962 H 99.69843289937758 38.6029805091428 82.62964247373424 H 0.0 **** 0.06
8963 H 101.3075550036262 38.765025137593405 81.88668595511945 H 0.0 **** 0.06
8964 H 99.93573579818214 38.17353507297486 80.91803303256717 H 0.0 **** 0.06
8965 H 100.62975609822148 37.14895100808783 82.19775807668901 H 0.0 **** 0.06
8966 C 96.29131374540687 82.24579395594515 90.05791894518154 C 0.0 **** -0.24
8967 H 95.5788599881389 82.7613570884073 89.4132140471815 H 0.0 **** 0.06
8968 H 96.70957279928582 81.39100463745133 89.52498863358062 H 0.0 **** 0.06
8969 H 95.78293607487518 81.90015610809749 90.95770706338163 H 0.0 **** 0.06
8970 H 97.09354204021642 82.93015143399131 90.3333942674468 H 0.0 **** 0.06
8971 C 76.90110036949181 53.357528581365344 50.20997313775004 C 0.0 **** -0.24
8972 H 76.01504917345653 52.84929585614634 50.59067886024677 H 0.0 **** 0.06
8973 H 77.38595673895793 53.89964781418752 51.022976327172856 H 0.0 **** 0.06
8974 H 76.60989693615454 54.05855502166719 49.42772346241651 H 0.0 **** 0.06
8975 H 77.5934986293982 52.62261563346051 49.7985139011641 H 0.0 **** 0.06
8976 C 63.322667224672585 34.656534301814474 94.12666297189361 C 0.0 **** -0.24
8977 H 62.36956728075387 34.843912302122675 94.61925504814917 H 0.0 **** 0.06
8978 H 63.519885933952196 35.44816377153225 93.40286901800158 H 0.0 **** 0.06
8979 H 63.28340123401196 33.69585435051221 93.613350915414 H 0.0 **** 0.06
8980 H 64.11953212801976 34.63798389499982 94.87117042036056 H 0.0 **** 0.06
8981 C 88.8380231047891 36.413687959045745 61.0690783708328 C 0.0 **** -0.24
8982 H 88.88279091080858 37.498793926567146 61.15855973844296 H 0.0 **** 0.06
8983 H 89.62569124314092 36.07136571275478 60.396953751795024 H 0.0 **** 0.06
8984 H 87.8673590165987 36.12197643644845 60.66977821619416 H 0.0 **** 0.06
8985 H 88.97823353427898 35.9629158850604 62.05201208010881 H 0.0 **** 0.06
8986 C 107.85249393050478 10.42652933933499 22.2574680374545 C 0.0 **** -0.24
8987 H 106.86069322721376 9.979126628819188 22.325101282040293 H 0.0 **** 0.06
8988 H 107.78761874566611 11.37162432473201 21.716735368080066 H 0.0 **** 0.06
8989 H 108.52120626719886 9.74856867262099 21.727352772327563 H 0.0 **** 0.06
8990 H 108.2382471829681 10.60705097968821 23.260907839281614 H 0.0 **** 0.06
8991 C 135.40640221656673 48.83036605564202 96.12986446924714 C 0.0 **** -0.24
8992 H 135.43429015255896 48.34617990251385 97.10602741376692 H 0.0 **** 0.06
8993 H 134.37152659128083 48.93110967189476 95.80287789033063 H 0.0 **** 0.06
8994 H 135.95862221756056 48.22633545990335 95.40944084070775 H 0.0 **** 0.06
8995 H 135.8627075376599 49.8175139963942 96.20183979446414 H 0.0 **** 0.06
8996 C 37.26849905318264 65.63850364806677 48.897746273313345 C 0.0 **** -0.24
8997 H 38.3430797220617 65.80888937376494 48.96619456070013 H 0.0 **** 0.06
8998 H 36.91346425210173 65.18227904166736 49.82209874087286 H 0.0 **** 0.06
8999 H 37.0591998386565 64.9736557934898 48.06012332695883 H 0.0 **** 0.06
9000 H 36.75924029263538 66.59018856545458 48.742735177447145 H 0.0 **** 0.06
9001 C 16.889069066125955 34.85800004469175 102.63047553593466 C 0.0 **** -0.24
9002 H 16.75512503054108 35.40570263979484 101.69773445917383 H 0.0 **** 0.06
9003 H 17.205316479590522 35.54747656845258 103.41384186311957 H 0.0 **** 0.06
9004 H 17.648519449857133 34.08798962208464 102.4945780461225 H 0.0 **** 0.06
9005 H 15.94618831464902 34.39138258680101 102.91640055614256 H 0.0 **** 0.06
9006 C 16.912268275736892 59.00517133381385 0.18796332961761664 C 0.0 **** -0.24
9007 H 17.430953254758435 58.45931474529364 0.9759370154669966 H 0.0 **** 0.06
9008 H 16.05671802840766 58.42171259532347 -0.15582999730725078 H 0.0 **** 0.06
9009 H 17.59384910647327 59.17545963282495 -0.6456814072573991 H 0.0 **** 0.06
9010 H 16.56694171687417 59.962889097455246 0.5764723807978385 H 0.0 **** 0.06
9011 C 92.90353822980973 68.87471032203406 24.234545527768233 C 0.0 **** -0.24
9012 H 91.97134955149346 68.43480556357764 24.587862803494545 H 0.0 **** 0.06
9013 H 93.19973794018858 69.68309460523238 24.90324699853926 H 0.0 **** 0.06
9014 H 92.76178080078157 69.26809145916701 23.228521114679666 H 0.0 **** 0.06
9015 H 93.68274094535019 68.1120786260753 24.22036362938684 H 0.0 **** 0.06
9016 C 15.193925922534 58.37785465558363 14.284438059298793 C 0.0 **** -0.24
9017 H 15.637121832706292 58.71921002888831 15.219419295144192 H 0.0 **** 0.06
9018 H 15.355707557622203 57.30575801381593 14.176306121708421 H 0.0 **** 0.06
9019 H 15.65841172839609 58.902318897301825 13.449470244628728 H 0.0 **** 0.06
9020 H 14.123148548946105 58.58480265724921 14.293463921654762 H 0.0 **** 0.06
9021 C 120.5153600705583 68.51345862047816 30.739891225398196 C 0.0 **** -0.24
9022 H 120.68932587750922 68.18172649913765 31.7634427645514 H 0.0 **** 0.06
9023 H 121.08343158123401 67.88588191144778 30.052556273654574 H 0.0 **** 0.06
9024 H 120.83567410697292 69.54957442697989 30.63458227577678 H 0.0 **** 0.06
9025 H 119.45300871651702 68.43665164434732 30.50898358760989 H 0.0 **** 0.06
9026 C 81.42781770721626 42.803086124833726 129.71277765974475 C 0.0 **** -0.24
9027 H 80.92154706771089 41.85574831317828 129.89951864756196 H 0.0 **** 0.06
9028 H 81.50158487906893 42.969547500415615 128.63752878964056 H 0.0 **** 0.06
9029 H 82.42789948053934 42.772624336917715 130.14522718057643 H 0.0 **** 0.06
9030 H 80.85929706926038 43.61472635888245 130.16869163929425 H 0.0 **** 0.06
9031 C 90.34977021135725 71.41038956484238 136.30918181460606 C 0.0 **** -0.24
9032 H 91.30887936553546 71.00417014390257 135.98740628709518 H 0.0 **** 0.06
9033 H 89.68781863775641 71.50445491787661 135.44737095276275 H 0.0 **** 0.06
9034 H 90.5035348754925 72.3913960033961 136.75898162374637 H 0.0 **** 0.06
9035 H 89.89927568779069 70.74094892125058 137.0422820742598 H 0.0 **** 0.06
9036 C 0.36527720095509864 8.115155485582239 21.19851397413987 C 0.0 **** -0.24
9037 H 0.8663368027858382 9.027382530668625 21.52271478504764 H 0.0 **** 0.06
9038 H 0.8917028157061644 7.697930556064755 20.34004586453193 H 0.0 **** 0.06
9039 H -0.66248062141878 8.346217315489596 20.91801733811633 H 0.0 **** 0.06
9040 H 0.36621237721494637 7.392340131859211 22.013187566144154 H 0.0 **** 0.06
9041 C 68.88425574353676 123.71292641753156 37.34995844627511 C 0.0 **** -0.24
9042 H 68.46654586225497 124.71670489576788 37.426452069302286 H 0.0 **** 0.06
9043 H 68.99871555909078 123.44624598094224 36.299043805509314 H 0.0 **** 0.06
9044 H 68.21452428717743 123.00272847114755 37.83378451470179 H 0.0 **** 0.06
9045 H 69.85786885375177 123.68703573120169 37.83979032105847 H 0.0 **** 0.06
9046 C 63.99634662724503 34.57250431776569 48.78836388848265 C 0.0 **** -0.24
9047 H 63.7171313001632 33.64681396095256 48.285348763124944 H 0.0 **** 0.06
9048 H 63.16223036825386 35.27293329675959 48.74700724690189 H 0.0 **** 0.06
9049 H 64.86263778053598 35.0079528013255 48.290973409508524 H 0.0 **** 0.06
9050 H 64.24222628139572 34.360050281404455 49.82854056331536 H 0.0 **** 0.06
9051 C 56.26643847155367 27.025096581439797 1.248416581510753 C 0.0 **** -0.24
9052 H 55.8164996354094 27.758465806634227 0.580000067187882 H 0.0 **** 0.06
9053 H 55.607467627799906 26.160420244843834 1.3335833057968784 H 0.0 **** 0.06
9054 H 56.41191204858791 27.47000555204061 2.232447819161223 H 0.0 **** 0.06
9055 H 57.229478562722306 26.709758403943944 0.8459532743340219 H 0.0 **** 0.06
9056 C 16.46869428349305 35.66668982776548 23.203656276642533 C 0.0 **** -0.24
9057 H 17.2876788249971 36.26111173503182 22.7982873182321 H 0.0 **** 0.06
9058 H 16.261071838065163 34.830880909026575 22.535002805245483 H 0.0 **** 0.06
9059 H 15.579037486695938 36.28898345143739 23.295691325911747 H 0.0 **** 0.06
9060 H 16.74757700598775 35.28501914135336 24.185378200335464 H 0.0 **** 0.06
9061 C 75.73463517986119 77.64157053311948 13.393416426195245 C 0.0 **** -0.24
9062 H 76.26553690128446 77.26022372356903 14.265995970715608 H 0.0 **** 0.06
9063 H 75.47567252673741 76.81291256639372 12.73403156144775 H 0.0 **** 0.06
9064 H 76.37187763164059 78.34727931148879 12.859805824767534 H 0.0 **** 0.06
9065 H 74.82378527218151 78.14729796123476 13.716105661255085 H 0.0 **** 0.06
9066 C 66.43351446905076 76.72979787734869 41.398216522946456 C 0.0 **** -0.24
9067 H 66.74412162687985 76.62915751780571 42.43817987548306 H 0.0 **** 0.06
9068 H 66.10311402655103 75.76106261047136 41.023748126487874 H 0.0 **** 0.06
9069 H 67.27345956118108 77.08389152436453 40.8004548663142 H 0.0 **** 0.06
9070 H 65.61312200418283 77.44466338797673 41.332424569208115 H 0.0 **** 0.06
9071 C 11.254188452244989 72.34351874361124 60.038137412089526 C 0.0 **** -0.24
9072 H 11.53544893207506 72.4875267923428 61.08139878519461 H 0.0 **** 0.06
9073 H 10.167094258462967 72.36089171860453 59.949647079140334 H 0.0 **** 0.06
9074 H 11.631863211389348 71.38269557538 59.688980341009255 H 0.0 **** 0.06
9075 H 11.681180900285181 73.14359530838448 59.43301013139467 H 0.0 **** 0.06
9076 C 55.770804026694236 135.92213419720485 68.70966469473709 C 0.0 **** -0.24
9077 H 55.856620804952456 134.8486650506925 68.53897325410566 H 0.0 **** 0.06
9078 H 54.82620213343431 136.13554513630243 69.21000367848418 H 0.0 **** 0.06
9079 H 55.80220662972758 136.44526417528556 67.75417636851935 H 0.0 **** 0.06
9080 H 56.597975999160695 136.25750639844293 69.33477432209537 H 0.0 **** 0.06
9081 C 97.73585871411929 83.64212470720977 78.95859655635485 C 0.0 **** -0.24
9082 H 96.73736543448037 83.28768888253772 78.70174737702675 H 0.0 **** 0.06
9083 H 98.24067578557076 82.8930398862198 79.5694817875476 H 0.0 **** 0.06
9084 H 97.65780095686569 84.57450890751376 79.51639910269961 H 0.0 **** 0.06
9085 H 98.30691538471831 83.8113088539181 78.04544263318235 H 0.0 **** 0.06
9086 C 16.726665726304006 129.29154761038558 53.28318626536122 C 0.0 **** -0.24
9087 H 17.64228971452495 129.8739142859099 53.186963773943376 H 0.0 **** 0.06
9088 H 15.901565027344631 129.95330275772244 53.546892598870116 H 0.0 **** 0.06
9089 H 16.85436066473843 128.54107968971763 54.06356885310588 H 0.0 **** 0.06
9090 H 16.508842267698768 128.79752505244878 52.33662687148566 H 0.0 **** 0.06
9091 C 71.89345463762002 99.83703106220656 131.44179005322616 C 0.0 **** -0.24
9092 H 71.43428835628816 98.8959223227401 131.74523321324165 H 0.0 **** 0.06
9093 H 72.506573923466 99.67211330794923 130.5547798949887 H 0.0 **** 0.06
9094 H 72.5179809759073 100.21410812089938 132.2511594183542 H 0.0 **** 0.06
9095 H 71.1136852511121 100.56409220055902 131.2151099614385 H 0.0 **** 0.06
9096 C 63.834039806569194 3.1574903794934244 100.73560532217968 C 0.0 **** -0.24
9097 H 63.03543229392159 2.545723383383347 101.15407419901092 H 0.0 **** 0.06
9098 H 63.40367955182296 3.9221089006950933 100.08819071662816 H 0.0 **** 0.06
9099 H 64.50898395052724 2.5274054106497488 100.1561785319715 H 0.0 **** 0.06
9100 H 64.38742549271416 3.634287183589038 101.54461221337266 H 0.0 **** 0.06
9101 C 30.834228848373414 20.13816703144093 33.386192874986364 C 0.0 **** -0.24
9102 H 29.809333574634024 20.454223711107147 33.18940121383301 H 0.0 **** 0.06
9103 H 31.424214789633652 20.232789177492236 32.47498803265398 H 0.0 **** 0.06
9104 H 30.83625967012415 19.098109550270834 33.71464598140355 H 0.0 **** 0.06
9105 H 31.264297147235 20.766095549845716 34.16571968075141 H 0.0 **** 0.06
9106 C 39.08402569482875 46.84433326753154 126.6461948822909 C 0.0 **** -0.24
9107 H 39.1261795773578 47.5525312141789 127.47334405405148 H 0.0 **** 0.06
9108 H 38.04317396035147 46.60950672970547 126.42285827673842 H 0.0 **** 0.06
9109 H 39.6119209129141 45.9314107115397 126.92395585977741 H 0.0 **** 0.06
9110 H 39.55559478539175 47.28393816004299 125.76752135112773 H 0.0 **** 0.06
9111 C 30.515219066683805 75.05238646971233 43.279810741746275 C 0.0 **** -0.24
9112 H 30.6529970931063 74.50520775146765 44.21222626763662 H 0.0 **** 0.06
9113 H 29.70757498506221 74.59608905098338 42.70720985348069 H 0.0 **** 0.06
9114 H 31.436551684361305 75.01928020581371 42.699357308726064 H 0.0 **** 0.06
9115 H 30.26282819549528 76.09005993896164 43.50142696347956 H 0.0 **** 0.06
9116 C 110.3564353202176 5.232372414621441 25.591104473183606 C 0.0 **** -0.24
9117 H 110.7018932764914 4.203805895981603 25.6999200359607 H 0.0 **** 0.06
9118 H 111.1365809796614 5.828771109425379 25.117807083333076 H 0.0 **** 0.06
9119 H 110.12931246733967 5.644707846415557 26.574323051887376 H 0.0 **** 0.06
9120 H 109.45869020248188 5.250775977665967 24.973013796639805 H 0.0 **** 0.06
9121 C 108.58109030182244 91.44000057504566 10.980967095729397 C 0.0 **** -0.24
9122 H 109.40421274707639 90.74898380069811 10.802022213036366 H 0.0 **** 0.06
9123 H 108.19568013162068 91.80179190043455 10.027409479534896 H 0.0 **** 0.06
9124 H 108.93840137826594 92.2837788910478 11.57203227921461 H 0.0 **** 0.06
9125 H 107.78691881250394 90.92760265897944 11.523198637293646 H 0.0 **** 0.06
9126 C 132.10257703670618 26.80209846245154 2.93735824612088 C 0.0 **** -0.24
9127 H 132.4095459418487 27.814476405857448 3.198404247623671 H 0.0 **** 0.06
9128 H 132.59554171060392 26.091267983278556 3.6016127064667103 H 0.0 **** 0.06
9129 H 132.38432447438993 26.591413513256356 1.9055199293460419 H 0.0 **** 0.06
9130 H 131.02193720437515 26.710805515692613 3.0447509438905627 H 0.0 **** 0.06
9131 C 130.51899607659254 134.14372700972535 11.007675503670129 C 0.0 **** -0.24
9132 H 129.8014900330831 134.89853780112114 10.68583888364779 H 0.0 **** 0.06
9133 H 131.03320827358004 134.4908014149779 11.904361777389397 H 0.0 **** 0.06
9134 H 131.2472426625078 133.97461927047743 10.214408493386316 H 0.0 **** 0.06
9135 H 129.99510706412505 133.21363378158486 11.225278111567633 H 0.0 **** 0.06
9136 C 102.48481789453129 64.15312993561537 64.71418193317167 C 0.0 **** -0.24
9137 H 101.97460516794499 63.49463229266101 64.01095870671423 H 0.0 **** 0.06
9138 H 102.3609240494764 65.18907020287801 64.39696877449461 H 0.0 **** 0.06
9139 H 103.5457124222781 63.904449372110435 64.739476882506 H 0.0 **** 0.06
9140 H 102.0568573747998 64.02303581971182 65.70840092160786 H 0.0 **** 0.06
9141 C 117.56401484969027 44.95811085929415 22.10815780084954 C 0.0 **** -0.24
9142 H 118.18557219574498 45.120062124195954 22.988897446091755 H 0.0 **** 0.06
9143 H 118.14948491616948 44.45959902449465 21.33633154915111 H 0.0 **** 0.06
9144 H 117.20916470351412 45.91883155419072 21.732628485778946 H 0.0 **** 0.06
9145 H 116.71010977394803 44.33576700692083 22.376083760258723 H 0.0 **** 0.06
9146 C 133.04951822795488 30.596697641504093 47.02786101005006 C 0.0 **** -0.24
9147 H 133.77594317969505 31.35315264878669 46.73240436005028 H 0.0 **** 0.06
9148 H 133.22766366196538 29.68111501976088 46.464200019557666 H 0.0 **** 0.06
9149 H 132.0430800411316 30.960057962476817 46.822884273968015 H 0.0 **** 0.06
9150 H 133.15153608090878 30.39283746809997 48.09364027313518 H 0.0 **** 0.06
9151 C 97.1799203848321 4.525070769806394 109.90707422985781 C 0.0 **** -0.24
9152 H 97.16871121936654 4.592536767862896 108.81874900128616 H 0.0 **** 0.06
9153 H 98.05379844033911 3.9575958573861207 110.22678256652148 H 0.0 **** 0.06
9154 H 96.27533856103551 4.023248949744207 110.24909703481035 H 0.0 **** 0.06
9155 H 97.2225749590665 5.52873281202255 110.33222036679479 H 0.0 **** 0.06
9156 C 61.11335893541481 110.61963856805036 77.56564645977488 C 0.0 **** -0.24
9157 H 61.087318198654714 111.35661954555519 76.76275543546092 H 0.0 **** 0.06
9158 H 62.14795351795982 110.42845165145849 77.85068098097912 H 0.0 **** 0.06
9159 H 60.652764649065546 109.69310444223206 77.22350108253835 H 0.0 **** 0.06
9160 H 60.56368309147521 111.00200049210954 78.42629966067591 H 0.0 **** 0.06
9161 C 68.83598930410585 43.42533944064621 17.27049738780073 C 0.0 **** -0.24
9162 H 68.04200322033394 43.143841757584056 17.961799918998736 H 0.0 **** 0.06
9163 H 68.4618238311707 44.17668895166085 16.57464812093977 H 0.0 **** 0.06
9164 H 69.16338973618389 42.545879010869584 16.716109106827844 H 0.0 **** 0.06
9165 H 69.67626007597248 43.8348711499643 17.830306129286228 H 0.0 **** 0.06
9166 C 0.43416227182214584 44.54378028917978 105.2331102396144 C 0.0 **** -0.24
9167 H 1.5123720994648977 44.68671721782431 105.16233836669792 H 0.0 **** 0.06
9168 H -0.060530236678289384 45.51520188827885 105.24845574354896 H 0.0 **** 0.06
9169 H 0.19899253696667074 44.000810163362644 106.14828381867466 H 0.0 **** 0.06
9170 H 0.08711885985704271 43.97216672287152 104.37224563318938 H 0.0 **** 0.06
9171 C 92.11235414410083 88.817573882387 83.20401467401797 C 0.0 **** -0.24
9172 H 92.81973520305826 88.10095315933341 82.78541117704589 H 0.0 **** 0.06
9173 H 92.54676621561714 89.2781491021366 84.09175546903668 H 0.0 **** 0.06
9174 H 91.1912212376701 88.30277815895381 83.47424331891314 H 0.0 **** 0.06
9175 H 91.89583687156937 89.58732332358305 82.46384571321238 H 0.0 **** 0.06
9176 C 52.00109371015344 36.92794195770439 15.935902540390373 C 0.0 **** -0.24
9177 H 51.26605480001169 36.99862864864937 16.737816042800475 H 0.0 **** 0.06
9178 H 51.60971591458633 36.29196653243709 15.140746690632824 H 0.0 **** 0.06
9179 H 52.92243173496587 36.49608439980425 16.326225916203995 H 0.0 **** 0.06
9180 H 52.204284238437594 37.922263569992005 15.539497247919925 H 0.0 **** 0.06
9181 C 24.975631139518583 51.793114661415416 63.873818253163506 C 0.0 **** -0.24
9182 H 24.097202813475448 52.22421333729477 63.39258887534376 H 0.0 **** 0.06
9183 H 25.0191572377732 50.725259268956904 63.6601025745253 H 0.0 **** 0.06
9184 H 24.911927442335802 51.94681536352357 64.95149076342261 H 0.0 **** 0.06
9185 H 25.873964647901204 52.27709843633036 63.49083565997421 H 0.0 **** 0.06
9186 C 108.28960460824231 46.322037579390496 124.39443013588159 C 0.0 **** -0.24
9187 H 108.26860635846748 47.051297136453286 125.2045039913352 H 0.0 **** 0.06
9188 H 107.49027150483582 45.595771728151135 124.53873718378878 H 0.0 **** 0.06
9189 H 109.25173817773373 45.80885037782326 124.39243085735134 H 0.0 **** 0.06
9190 H 108.14963141734168 46.833499889885275 123.44183636272454 H 0.0 **** 0.06
9191 C 136.3013672992134 25.066512367134038 96.7700869898234 C 0.0 **** -0.24
9192 H 135.99433078306433 24.248091544089448 96.11993936463827 H 0.0 **** 0.06
9193 H 135.640595729085 25.920864565235064 96.61510173464771 H 0.0 **** 0.06
9194 H 137.32604773176715 25.352775159347857 96.53424454108459 H 0.0 **** 0.06
9195 H 136.2436987463057 24.745902908977314 97.80970034103862 H 0.0 **** 0.06
9196 C 110.1514623369651 76.78138670754863 20.50374792350283 C 0.0 **** -0.24
9197 H 111.07047063107927 77.32932701352834 20.70965129153967 H 0.0 **** 0.06
9198 H 110.2244016890148 76.30565728276143 19.524964239960696 H 0.0 **** 0.06
9199 H 109.3073256144615 77.47102396954129 20.510868861194524 H 0.0 **** 0.06
9200 H 110.00427020072306 76.01835077476925 21.26802189113843 H 0.0 **** 0.06
9201 C 0.6675652730195658 128.40542909649776 80.650722815125 C 0.0 **** -0.24
9202 H 0.30109541598395495 127.91672495363825 81.55341942053323 H 0.0 **** 0.06
9203 H 1.5066488981770547 129.05350715286693 80.90330261162455 H 0.0 **** 0.06
9204 H -0.13263087681319163 129.0015213422725 80.21117389578396 H 0.0 **** 0.06
9205 H 0.9930425134139398 127.64994428678622 79.93574916538512 H 0.0 **** 0.06
9206 C 76.46234969776538 107.92335649303868 3.1847930149556305 C 0.0 **** -0.24
9207 H 77.06844280581424 107.03272264885481 3.0197368161061036 H 0.0 **** 0.06
9208 H 77.01651816150945 108.63117900864785 3.802596981095121 H 0.0 **** 0.06
9209 H 75.53762106955685 107.64481403701444 3.691135954156664 H 0.0 **** 0.06
9210 H 76.22565446471776 108.38550671684618 2.2267097343085993 H 0.0 **** 0.06
9211 C 132.18932609247545 88.23384523974387 79.59020926065942 C 0.0 **** -0.24
9212 H 132.44635974550684 88.83479306400915 80.4628073927427 H 0.0 **** 0.06
9213 H 132.69109910957349 88.63732357617873 78.71105619981616 H 0.0 **** 0.06
9214 H 131.11041168075042 88.25932710027024 79.43687487404853 H 0.0 **** 0.06
9215 H 132.50924235480113 87.20398248896647 79.75149906843268 H 0.0 **** 0.06
9216 C 127.46105020301894 107.48850544453143 23.685590682462987 C 0.0 **** -0.24
9217 H 127.86533097284098 108.25792070718586 23.02774094313233 H 0.0 **** 0.06
9218 H 128.25005375731075 107.12169538860095 24.34240485220991 H 0.0 **** 0.06
9219 H 127.07404907325889 106.66459653225047 23.085289648575312 H 0.0 **** 0.06
9220 H 126.65505733866655 107.91038518827261 24.285319794864478 H 0.0 **** 0.06
9221 C 32.46706732585062 124.62427127210779 78.95106406821557 C 0.0 **** -0.24
9222 H 31.718010965990857 125.0075069427326 78.25842488805019 H 0.0 **** 0.06
9223 H 32.08526111933922 124.68719986001969 79.97020247302738 H 0.0 **** 0.06
9224 H 33.37731358373975 125.21609831582523 78.866067208168 H 0.0 **** 0.06
9225 H 32.685666835061994 123.58330226681005 78.70930400652773 H 0.0 **** 0.06
9226 C 19.95009965255025 2.0460751884813817 35.84245037815033 C 0.0 **** -0.24
9227 H 19.732434091715106 2.829214053162218 36.568535272622356 H 0.0 **** 0.06
9228 H 21.01115564791104 1.7983413051645698 35.88230250415392 H 0.0 **** 0.06
9229 H 19.694733070746167 2.3953127425851335 34.84264937779629 H 0.0 **** 0.06
9230 H 19.3613342263518 1.1588966033204429 36.07896372957392 H 0.0 **** 0.06
9231 C 74.16082197507731 136.60079208159362 76.06748972904539 C 0.0 **** -0.24
9232 H 74.57032784880153 136.1263194597412 76.95946772663231 H 0.0 **** 0.06
9233 H 73.33701561073251 135.9993596385214 75.6818691931698 H 0.0 **** 0.06
9234 H 74.93949481893519 136.68057833430925 75.3088364321446 H 0.0 **** 0.06
9235 H 73.79588424855486 137.59608299015238 76.32078307177231 H 0.0 **** 0.06
9236 C 98.59538620535523 8.23039653627157 12.064870643568185 C 0.0 **** -0.24
9237 H 98.1167280130457 7.441077740873482 11.484710092664614 H 0.0 **** 0.06
9238 H 98.90636484784807 7.832791334406778 13.03103960262456 H 0.0 **** 0.06
9239 H 97.89045269236988 9.047862062449184 12.217343371514772 H 0.0 **** 0.06
9240 H 99.46761622296754 8.599563397766701 11.525512987887709 H 0.0 **** 0.06
9241 C 47.19304772872515 73.10512379887962 2.2218098604138845 C 0.0 **** -0.24
9242 H 48.25261998901365 73.17717324245564 1.9771927164371164 H 0.0 **** 0.06
9243 H 46.93629634799103 72.0648243666596 2.422358841434061 H 0.0 **** 0.06
9244 H 46.601063438789694 73.4700592017976 1.3811720575308755 H 0.0 **** 0.06
9245 H 46.98199770794942 73.7090832579214 3.10416234720617 H 0.0 **** 0.06
9246 C 60.860538654960976 119.6361266023321 62.541841899263375 C 0.0 **** -0.24
9247 H 60.1037568756126 120.28050399373893 62.09518862541391 H 0.0 **** 0.06
9248 H 60.60212834083468 119.4392166455579 63.58225125890361 H 0.0 **** 0.06
9249 H 61.83147128762327 120.12989949523677 62.49541732015666 H 0.0 **** 0.06
9250 H 60.90559779381948 118.69447009032626 61.994077550971596 H 0.0 **** 0.06
9251 C 119.11588972014958 57.650073919674355 63.70525873500277 C 0.0 **** -0.24
9252 H 118.24592416267012 57.8166739971939 63.07118197509149 H 0.0 **** 0.06
9253 H 119.2397773049646 56.58175458514279 63.88130903061254 H 0.0 **** 0.06
9254 H 118.9739551219013 58.16167955437447 64.65745111432295 H 0.0 **** 0.06
9255 H 120.00506283179281 58.04218922504106 63.21189698927003 H 0.0 **** 0.06
9256 C 46.44752628769743 41.57017425290273 10.799588440108856 C 0.0 **** -0.24
9257 H 46.95076303012473 41.19907715378869 11.692462893645803 H 0.0 **** 0.06
9258 H 46.94236590394587 42.47823006649606 10.45554129010527 H 0.0 **** 0.06
9259 H 45.40618028110745 41.79043364801807 11.035709979856904 H 0.0 **** 0.06
9260 H 46.490288797246876 40.81367372509025 10.01692611495437 H 0.0 **** 0.06
9261 C 12.56846054332155 83.32764500360057 58.71102092078323 C 0.0 **** -0.24
9262 H 11.637457553057601 83.02028376687007 59.18704145777676 H 0.0 **** 0.06
9263 H 13.244160483042464 83.73474888224479 59.46322640200542 H 0.0 **** 0.06
9264 H 12.358703745842263 84.0884666949449 57.95917419265092 H 0.0 **** 0.06
9265 H 13.032933728612761 82.46402171636002 58.23409473871769 H 0.0 **** 0.06
9266 C 2.740821967993327 39.44113489556575 0.9812437487000523 C 0.0 **** -0.24
9267 H 2.649629874515483 40.46320164226971 1.3489020540927186 H 0.0 **** 0.06
9268 H 2.4088450357893123 38.74650368444625 1.7536632699662391 H 0.0 **** 0.06
9269 H 3.7832959722067017 39.23648702587772 0.732112493808529 H 0.0 **** 0.06
9270 H 2.1242591808315865 39.318865004016544 0.09178471169937552 H 0.0 **** 0.06
9271 C 12.11561030134851 39.725276904489384 16.903774176039995 C 0.0 **** -0.24
9272 H 11.384617874512855 38.97655400151432 17.208815391164897 H 0.0 **** 0.06
9273 H 12.110006182591974 40.54949372083934 17.6177961265767 H 0.0 **** 0.06
9274 H 11.859998877887108 40.099704461826114 15.91296096126679 H 0.0 **** 0.06
9275 H 13.107057087897886 39.27380061908739 16.87652589269114 H 0.0 **** 0.06
9276 C 103.93166332569166 45.619340652622896 72.94065436713994 C 0.0 **** -0.24
9277 H 103.77526248606398 46.22048329336599 72.0448494922639 H 0.0 **** 0.06
9278 H 104.80422731458117 44.98056301837818 72.80158851630864 H 0.0 **** 0.06
9279 H 103.05297656068507 45.00108276359663 73.12171448917756 H 0.0 **** 0.06
9280 H 104.09557534601379 46.27662364628611 73.79553275144941 H 0.0 **** 0.06
9281 C 22.078765315140345 63.67155145307484 73.05702105355482 C 0.0 **** -0.24
9282 H 22.471309392906676 64.22752636047346 73.90911034736365 H 0.0 **** 0.06
9283 H 22.904407055693582 63.34161205856077 72.42671020825046 H 0.0 **** 0.06
9284 H 21.413902381827654 64.31469507623427 72.47994770554737 H 0.0 **** 0.06
9285 H 21.524214417350095 62.80403185991864 73.41424941440454 H 0.0 **** 0.06
9286 C 98.6595161766172 11.24024155111205 53.866219476966535 C 0.0 **** -0.24
9287 H 99.44151715537647 11.993801459972474 53.782011881553615 H 0.0 **** 0.06
9288 H 98.05400907777081 11.442939255642742 54.75038004995437 H 0.0 **** 0.06
9289 H 99.11405505726235 10.253713603204943 53.95483695263928 H 0.0 **** 0.06
9290 H 98.02724626486761 11.270884571252935 52.97822404984633 H 0.0 **** 0.06
9291 C 81.23621098924353 130.4952352181758 104.5806597733701 C 0.0 **** -0.24
9292 H 80.81020887418572 130.90828167998393 103.66604515316257 H 0.0 **** 0.06
9293 H 82.17501656514868 131.0025715449212 104.80459958849377 H 0.0 **** 0.06
9294 H 81.42228054688451 129.4289927163406 104.4445965631808 H 0.0 **** 0.06
9295 H 80.53797297159684 130.63975890148856 105.4041095671852 H 0.0 **** 0.06
9296 C 61.005176597235874 106.28603441988255 41.189193790131924 C 0.0 **** -0.24
9297 H 60.583523420147856 106.58729289467465 42.148535766560684 H 0.0 **** 0.06
9298 H 60.46712714273514 105.41566705189479 40.813689478290854 H 0.0 **** 0.06
9299 H 62.057686555416296 106.03586853670727 41.31806903269988 H 0.0 **** 0.06
9300 H 60.91085889401728 107.1060017125528 40.477977350601265 H 0.0 **** 0.06
9301 C 102.16735611960044 78.07782431518282 132.94248520811794 C 0.0 **** -0.24
9302 H 101.24106974545509 78.63123471893809 133.09499918586837 H 0.0 **** 0.06
9303 H 102.07599388455043 77.08725534297615 133.38705587080597 H 0.0 **** 0.06
9304 H 102.9919534495175 78.61354001029724 133.4140571075559 H 0.0 **** 0.06
9305 H 102.3604594564134 77.98067286628736 131.87397513571239 H 0.0 **** 0.06
9306 C 49.79726427649071 80.01197548670521 109.9232104416534 C 0.0 **** -0.24
9307 H 50.10877413364615 79.08074092280475 109.45057862380266 H 0.0 **** 0.06
9308 H 50.00095955614151 80.84583440558075 109.25048415467121 H 0.0 **** 0.06
9309 H 50.35077403266848 80.15101326525941 110.85166318169692 H 0.0 **** 0.06
9310 H 48.72982176366395 79.97136614773375 110.13830667669811 H 0.0 **** 0.06
9311 C 80.4851364517043 117.91356319333448 116.05952904528274 C 0.0 **** -0.24
9312 H 80.99242944217227 117.4904289735106 116.92595807796332 H 0.0 **** 0.06
9313 H 79.40875662443105 117.91970775936221 116.23681374392109 H 0.0 **** 0.06
9314 H 80.70530876890416 117.31083312813016 115.17857406971808 H 0.0 **** 0.06
9315 H 80.83253771598555 118.93393140120045 115.89828348226189 H 0.0 **** 0.06
9316 C 100.95358814847344 76.10085337239332 14.776415901213028 C 0.0 **** -0.24
9317 H 100.98075788720496 76.89593375493456 15.52151592853248 H 0.0 **** 0.06
9318 H 101.01791075802231 75.13354861631592 15.275940905617219 H 0.0 **** 0.06
9319 H 101.79623610919421 76.2149601030543 14.093247394469117 H 0.0 **** 0.06
9320 H 100.02066700494487 76.1599851160941 14.216535912562904 H 0.0 **** 0.06
9321 C 55.88979983987417 14.055596776891917 107.82541780794216 C 0.0 **** -0.24
9322 H 54.97194748744653 13.824359431316822 108.36452015377927 H 0.0 **** 0.06
9323 H 55.92487408115966 15.123660599378432 107.61081462091434 H 0.0 **** 0.06
9324 H 55.91360364135619 13.496054705358794 106.89029476182753 H 0.0 **** 0.06
9325 H 56.748854070062436 13.779203045157843 108.4364893106121 H 0.0 **** 0.06
9326 C 53.669233855512914 19.224788308456482 11.674718660009443 C 0.0 **** -0.24
9327 H 52.626123775813525 19.124523542977045 11.975230583039885 H 0.0 **** 0.06
9328 H 53.750820664553885 19.087481707033135 10.595941757348701 H 0.0 **** 0.06
9329 H 54.26785278311671 18.468746525779977 12.183060352101961 H 0.0 **** 0.06
9330 H 54.0318738945855 20.21626168437325 11.944048867610618 H 0.0 **** 0.06
9331 C 87.62872714833377 30.765925561070645 61.949642386399375 C 0.0 **** -0.24
9332 H 87.66542909138967 30.134228022361754 61.06268793362801 H 0.0 **** 0.06
9333 H 88.42130045195178 31.51351451496373 61.89506706175891 H 0.0 **** 0.06
9334 H 87.76801224134277 30.15249691305172 62.83935862254026 H 0.0 **** 0.06
9335 H 86.66137318994481 31.26572612271707 61.99989952027403 H 0.0 **** 0.06
9336 C 84.35543117648422 36.98487148625986 38.93874390395871 C 0.0 **** -0.24
9337 H 84.22744518517379 37.627336615126495 38.068489842743816 H 0.0 **** 0.06
9338 H 83.74605291965662 37.36127182672419 39.76047439077166 H 0.0 **** 0.06
9339 H 85.40380396493833 36.9794660759766 39.236181823182505 H 0.0 **** 0.06
9340 H 84.04274933931538 35.97013654041166 38.691084556892804 H 0.0 **** 0.06
9341 C 53.1982592678728 97.61371247655183 127.02754244050016 C 0.0 **** -0.24
9342 H 52.13087515213738 97.6431418869179 126.80872260815815 H 0.0 **** 0.06
9343 H 53.54636560048658 96.58052497440751 127.00195563964537 H 0.0 **** 0.06
9344 H 53.37712173705134 98.03243277591487 128.0187143053989 H 0.0 **** 0.06
9345 H 53.73867782360858 98.19849826154167 126.28376667344374 H 0.0 **** 0.06
9346 C 82.46160956621094 28.006595203695383 41.64382059952791 C 0.0 **** -0.24
9347 H 82.70812875186033 27.01529202904004 41.26277546544458 H 0.0 **** 0.06
9348 H 82.4587147442709 27.984764253155163 42.7342471935379 H 0.0 **** 0.06
9349 H 81.47681363494814 28.299436566164047 41.2827653796146 H 0.0 **** 0.06
9350 H 83.20524816022265 28.724333604694777 41.296673200246346 H 0.0 **** 0.06
9351 C 105.31048837497852 87.29743284356618 47.74683510203597 C 0.0 **** -0.24
9352 H 104.55073039770073 87.67453754187108 48.431962797078185 H 0.0 **** 0.06
9353 H 106.22372904279177 87.8828759804556 47.8594625401888 H 0.0 **** 0.06
9354 H 104.94872323687173 87.38172634138982 46.72184696792907 H 0.0 **** 0.06
9355 H 105.5179985362069 86.25175226791794 47.97430539775702 H 0.0 **** 0.06
9356 C 92.51317638614927 66.83258340888695 20.963285232021377 C 0.0 **** -0.24
9357 H 92.212396882152 66.11297149006452 21.725092598720295 H 0.0 **** 0.06
9358 H 91.62406667144052 67.26139748594518 20.49789120739152 H 0.0 **** 0.06
9359 H 93.11407313952157 66.33050942903826 20.205666708067525 H 0.0 **** 0.06
9360 H 93.09997395573549 67.62710659759456 21.425696994403026 H 0.0 **** 0.06
9361 C 71.14101662281465 93.33717078017494 95.46667763354793 C 0.0 **** -0.24
9362 H 71.42095399178544 93.71720166143282 94.48420999678609 H 0.0 **** 0.06
9363 H 70.6791599928979 94.13637772469843 96.04673003953354 H 0.0 **** 0.06
9364 H 72.0313492120111 92.9789339780496 95.9852134757146 H 0.0 **** 0.06
9365 H 70.43358862653912 92.51632039123824 95.35063749841004 H 0.0 **** 0.06
9366 C 83.44815735105266 86.51626751043193 47.66569657652758 C 0.0 **** -0.24
9367 H 84.08614484691651 87.38810772128011 47.52423768037413 H 0.0 **** 0.06
9368 H 83.95140063501151 85.62987842844086 47.277143184775554 H 0.0 **** 0.06
9369 H 82.50853656389319 86.66383514467998 47.132385525635456 H 0.0 **** 0.06
9370 H 83.24574750133729 86.38210697272774 48.7287818561861 H 0.0 **** 0.06
9371 C 102.07596313466863 18.01593425127453 77.23554584236966 C 0.0 **** -0.24
9372 H 101.51835136496902 17.07965528021225 77.22278471406102 H 0.0 **** 0.06
9373 H 101.39329659400033 18.848127404640422 77.06176136953799 H 0.0 **** 0.06
9374 H 102.83382925528832 17.997696459765848 76.45151813377599 H 0.0 **** 0.06
9375 H 102.55849209726148 18.13765109280905 78.2053328675217 H 0.0 **** 0.06
9376 C 108.9182070439299 50.83302850418488 96.5817530104603 C 0.0 **** -0.24
9377 H 108.55016847885183 51.09119514800824 95.5888030327949 H 0.0 **** 0.06
9378 H 109.2524928543318 49.7954787173324 96.58628144373131 H 0.0 **** 0.06
9379 H 108.11839131804969 50.960655949562224 97.30993019711865 H 0.0 **** 0.06
9380 H 109.75259219282881 51.484428251210446 96.8399463724135 H 0.0 **** 0.06
9381 C 90.9251275119045 129.3219000559199 117.45244691212324 C 0.0 **** -0.24
9382 H 91.53155364427226 128.86818705733953 118.23643921418031 H 0.0 **** 0.06
9383 H 90.30034465207818 128.55822671528637 116.98837956129316 H 0.0 **** 0.06
9384 H 91.57675579588134 129.76570755238845 116.69989290137752 H 0.0 **** 0.06
9385 H 90.29105624223972 130.0951487656495 117.88557748676794 H 0.0 **** 0.06
9386 C 94.48929766769729 111.470242806653 28.866600369746436 C 0.0 **** -0.24
9387 H 94.45023531671252 111.02902446332132 27.869988293833956 H 0.0 **** 0.06
9388 H 95.2769956697368 112.22440269210381 28.899278927497278 H 0.0 **** 0.06
9389 H 94.69942785888615 110.69193381407808 29.600533267683545 H 0.0 **** 0.06
9390 H 93.5305589818118 111.9358912362917 29.095215202857617 H 0.0 **** 0.06
9391 C 24.176831035844657 131.1797846917321 65.83711699643942 C 0.0 **** -0.24
9392 H 23.363622733256094 131.3296197576469 66.54784184325646 H 0.0 **** 0.06
9393 H 24.326705460007275 132.0922265606312 65.2591000402102 H 0.0 **** 0.06
9394 H 23.92481126653513 130.36017199838514 65.1635071883336 H 0.0 **** 0.06
9395 H 25.091352793398684 130.937619347394 66.37826203270949 H 0.0 **** 0.06
9396 C 111.46197473179078 97.55885286844646 99.80064642572461 C 0.0 **** -0.24
9397 H 112.10373460160343 97.23885548029493 98.9797109794576 H 0.0 **** 0.06
9398 H 111.39271979916327 96.75976784931214 100.53930669115607 H 0.0 **** 0.06
9399 H 110.46680222920739 97.7856184078221 99.41682721214983 H 0.0 **** 0.06
9400 H 111.88407084820471 98.4496495804325 100.2655734481246 H 0.0 **** 0.06
9401 C 54.34571248470914 54.594123919168084 64.74654273452438 C 0.0 **** -0.24
9402 H 54.75282875667793 54.31541699360395 63.774616888241894 H 0.0 **** 0.06
9403 H 54.776346079534676 53.95514523038162 65.51749669193033 H 0.0 **** 0.06
9404 H 53.26277740175601 54.469568585567 64.73447413915483 H 0.0 **** 0.06
9405 H 54.58932164253514 55.63552102317175 64.95824001392509 H 0.0 **** 0.06
9406 C 47.86313591909462 29.236000104247353 15.197364712183344 C 0.0 **** -0.24
9407 H 48.488233713787594 29.68642340177007 14.426972852806557 H 0.0 **** 0.06
9408 H 47.420995309806045 30.021570795103685 15.811852735324067 H 0.0 **** 0.06
9409 H 48.47235473924525 28.58426940720952 15.824183363777934 H 0.0 **** 0.06
9410 H 47.071319822581046 28.652181641399807 14.727743220367472 H 0.0 **** 0.06
9411 C 107.09011300122222 54.148128265248275 81.07290789702989 C 0.0 **** -0.24
9412 H 106.90119029832789 55.21672920358924 81.16658942533519 H 0.0 **** 0.06
9413 H 106.33334686701033 53.70084983877909 80.4278876479741 H 0.0 **** 0.06
9414 H 107.04716786611502 53.68394780059751 82.05850279422941 H 0.0 **** 0.06
9415 H 108.07726603167521 53.98964206415762 80.63863599599983 H 0.0 **** 0.06
9416 C 78.49064453702874 63.929446074154654 15.504162560318349 C 0.0 **** -0.24
9417 H 79.14174318228339 63.175095823020115 15.947380763341698 H 0.0 **** 0.06
9418 H 78.88698897761564 64.92208965469284 15.720555540211464 H 0.0 **** 0.06
9419 H 77.49058916436226 63.83792681254684 15.925904729334633 H 0.0 **** 0.06
9420 H 78.4459617897667 63.781986491511006 14.425301973447745 H 0.0 **** 0.06
9421 C 81.32330186916795 69.7900840760157 73.42282387293032 C 0.0 **** -0.24
9422 H 81.54471704569417 68.89930044979863 72.83518376146576 H 0.0 **** 0.06
9423 H 82.24656415930707 70.1771960170142 73.85638961192997 H 0.0 **** 0.06
9424 H 80.6259503762065 69.53529449383136 74.22043542839886 H 0.0 **** 0.06
9425 H 80.87808886994108 70.54892121149527 72.77865876176095 H 0.0 **** 0.06
9426 C 121.8146357219142 35.6698277437511 63.868045605237285 C 0.0 **** -0.24
9427 H 122.5443695815021 36.40505660131565 63.52792634200108 H 0.0 **** 0.06
9428 H 121.35050243196575 36.01987553770202 64.79006561133536 H 0.0 **** 0.06
9429 H 122.31668868947581 34.71976320216723 64.05178254229031 H 0.0 **** 0.06
9430 H 121.05051844053573 35.53638909097404 63.10357004939874 H 0.0 **** 0.06
9431 C 62.763110646558786 56.08375069375835 134.5296007925677 C 0.0 **** -0.24
9432 H 63.54569408256947 55.82879269205219 133.8157383438715 H 0.0 **** 0.06
9433 H 62.12179350856762 56.857169677643796 134.1066297792703 H 0.0 **** 0.06
9434 H 63.21695319706208 56.4513026416284 135.4505859289531 H 0.0 **** 0.06
9435 H 62.167427414419365 55.196867807126864 134.74766576814483 H 0.0 **** 0.06
9436 C 104.49386731293666 101.32312228672251 111.95131760758551 C 0.0 **** -0.24
9437 H 104.81846446795646 102.2064607807092 111.40023693181922 H 0.0 **** 0.06
9438 H 105.19636683430704 101.12229663825991 112.7607937276307 H 0.0 **** 0.06
9439 H 104.46213845171539 100.46732712942699 111.27692158551733 H 0.0 **** 0.06
9440 H 103.50110367989052 101.49811995930091 112.36525023430579 H 0.0 **** 0.06
9441 C 5.047492376974162 92.19294307372697 28.671877398265202 C 0.0 **** -0.24
9442 H 5.37277004380627 92.73152859605322 27.781299957262895 H 0.0 **** 0.06
9443 H 4.526365066764242 91.28209034767364 28.374270647103927 H 0.0 **** 0.06
9444 H 4.375477358078001 92.82345315041219 29.252119428814396 H 0.0 **** 0.06
9445 H 5.915729794136553 91.93347137075241 29.276929664717287 H 0.0 **** 0.06
9446 C 86.67693906328259 76.21272449733948 136.0110692495846 C 0.0 **** -0.24
9447 H 85.71088445841383 75.92611965718339 136.42611407563962 H 0.0 **** 0.06
9448 H 86.58492491115635 76.33439615289603 134.93085512266185 H 0.0 **** 0.06
9449 H 87.41010540797419 75.43635934307525 136.22871414133806 H 0.0 **** 0.06
9450 H 86.99908620882707 77.153972572844 136.45626845307618 H 0.0 **** 0.06
9451 C 10.601352693586875 27.81157553569669 49.39314009829468 C 0.0 **** -0.24
9452 H 11.082153256928876 28.062948200507876 48.448325505945604 H 0.0 **** 0.06
9453 H 10.33113621063833 28.728186666462364 49.91732340840235 H 0.0 **** 0.06
9454 H 11.289139664449028 27.229507420623946 50.0071448938005 H 0.0 **** 0.06
9455 H 9.702812498658584 27.22549883080538 49.198371753765514 H 0.0 **** 0.06
9456 C 66.34372326040591 133.38741627234697 12.2685469867464 C 0.0 **** -0.24
9457 H 65.64717216792133 132.80760364120357 12.874182151548382 H 0.0 **** 0.06
9458 H 66.34668671861101 134.42318412636791 12.60994747219155 H 0.0 **** 0.06
9459 H 66.03540299552287 133.34920856066688 11.22392225455576 H 0.0 **** 0.06
9460 H 67.34572165813529 132.96895122562086 12.36735140628383 H 0.0 **** 0.06
9461 C 9.323843801293744 133.0534384519578 92.23340735609973 C 0.0 **** -0.24
9462 H 9.017118467090274 132.21023155230336 91.61416122082777 H 0.0 **** 0.06
9463 H 9.512837680793542 132.70732041450813 93.24963207798997 H 0.0 **** 0.06
9464 H 8.530761102991242 133.80179042047791 92.24503813776826 H 0.0 **** 0.06
9465 H 10.233012081861585 133.49361995625165 91.8231655153712 H 0.0 **** 0.06
9466 C 75.93091899346456 117.76619263446898 113.78215199975557 C 0.0 **** -0.24
9467 H 76.72426080564605 117.26344819361313 114.33506957670141 H 0.0 **** 0.06
9468 H 76.08592181166688 117.62143600113558 112.71333785774738 H 0.0 **** 0.06
9469 H 75.94812024735077 118.83161954458986 114.01119275608812 H 0.0 **** 0.06
9470 H 74.9662801625949 117.34785105143183 114.0710089682006 H 0.0 **** 0.06
9471 C 68.81825528287698 60.25124864441304 40.56887301117732 C 0.0 **** -0.24
9472 H 69.03291779958175 59.71999986292887 39.64072115114752 H 0.0 **** 0.06
9473 H 69.60521874088226 60.98036279963122 40.760584008062224 H 0.0 **** 0.06
9474 H 68.77505124230709 59.538154050972636 41.392419971948826 H 0.0 **** 0.06
9475 H 67.86037360238583 60.76305126867024 40.48036433789352 H 0.0 **** 0.06
9476 C 127.80447933934994 73.83745453073934 56.6855492182155 C 0.0 **** -0.24
9477 H 127.51634102079589 74.85679042694117 56.43077353270894 H 0.0 **** 0.06
9478 H 126.96901043578043 73.33570538063047 57.173119248845694 H 0.0 **** 0.06
9479 H 128.65954118186653 73.8594069083109 57.36041390976271 H 0.0 **** 0.06
9480 H 128.07279322867024 73.29742447133859 55.77658423857372 H 0.0 **** 0.06
9481 C 106.77899899465483 91.59940453999315 15.537424015746318 C 0.0 **** -0.24
9482 H 107.01968478962534 92.17519621100101 14.64374713759166 H 0.0 **** 0.06
9483 H 106.34794583011767 92.2613834006624 16.289842326526035 H 0.0 **** 0.06
9484 H 107.6870949473453 91.14359910301465 15.931002685183117 H 0.0 **** 0.06
9485 H 106.06010049718905 90.82016549731003 15.284656300054905 H 0.0 **** 0.06
9486 C 23.202773157537862 16.23651511755321 49.783659688256535 C 0.0 **** -0.24
9487 H 23.400017556201703 15.166080913780377 49.85600200576738 H 0.0 **** 0.06
9488 H 24.03212822563927 16.78862149466879 50.22779239900501 H 0.0 **** 0.06
9489 H 22.282296674632278 16.471573675223645 50.31780439577699 H 0.0 **** 0.06
9490 H 23.097617868352955 16.516685267161215 48.73642522140523 H 0.0 **** 0.06
9491 C 97.24525007809946 120.5128437038039 119.8475213502652 C 0.0 **** -0.24
9492 H 97.2360327587529 120.37500287231043 118.76590956768757 H 0.0 **** 0.06
9493 H 96.2200365347854 120.59022177150605 120.21093837566286 H 0.0 **** 0.06
9494 H 97.78860607967316 121.42482600961299 120.09286508207276 H 0.0 **** 0.06
9495 H 97.7347341867869 119.65963605360875 120.31761186842198 H 0.0 **** 0.06
9496 C 13.710959414730326 36.79154728405666 59.522076466922954 C 0.0 **** -0.24
9497 H 13.359194166428608 36.00623426495531 58.85396594099443 H 0.0 **** 0.06
9498 H 14.710287065919033 36.54363819029338 59.87967873708463 H 0.0 **** 0.06
9499 H 13.032035184003632 36.877859041508366 60.37061653402115 H 0.0 **** 0.06
9500 H 13.741379645452525 37.73878207471838 58.984135115440935 H 0.0 **** 0.06
9501 C 4.610268786289566 94.58757999360239 88.70874707547298 C 0.0 **** -0.24
9502 H 4.503266412447232 94.68382407858633 89.78952256636963 H 0.0 **** 0.06
9503 H 4.788637127729828 93.5426723802218 88.4531812015493 H 0.0 **** 0.06
9504 H 5.451043775299297 95.19311060450144 88.37115689083247 H 0.0 **** 0.06
9505 H 3.6968335687974445 94.92924604204092 88.22221088626188 H 0.0 **** 0.06
9506 C 77.99771547370614 107.63404925668696 64.34244108563013 C 0.0 **** -0.24
9507 H 77.71718285456164 107.23387927268874 65.31704178446472 H 0.0 **** 0.06
9508 H 78.67628319985509 106.93911765113442 63.84648440946813 H 0.0 **** 0.06
9509 H 78.4930682459408 108.5955237578741 64.47327465123107 H 0.0 **** 0.06
9510 H 77.10328287879094 107.76547410696928 63.733206385539006 H 0.0 **** 0.06
9511 C 68.98376357697484 120.98390682674807 26.411335286350393 C 0.0 **** -0.24
9512 H 68.84291435995844 119.90387195433694 26.370149973338812 H 0.0 **** 0.06
9513 H 68.01161636690429 121.47723151873824 26.40778165774413 H 0.0 **** 0.06
9514 H 69.55980987504702 121.30832227692686 25.545387663143266 H 0.0 **** 0.06
9515 H 69.52025934555101 121.2450580749514 27.323598617107308 H 0.0 **** 0.06
9516 C 76.9172340112653 55.15703504700164 110.46831576217537 C 0.0 **** -0.24
9517 H 76.54072631451214 54.78126910847932 111.4207258973174 H 0.0 **** 0.06
9518 H 77.8371399401654 55.71738014620999 110.63815850708417 H 0.0 **** 0.06
9519 H 76.17178244048051 55.80907969059969 110.01448347931168 H 0.0 **** 0.06
9520 H 77.12040575431257 54.31760968461667 109.80210900613793 H 0.0 **** 0.06
9521 C 88.67641324188583 96.80300968171821 79.301152352297 C 0.0 **** -0.24
9522 H 89.13067614075923 97.78304173768578 79.15226820037961 H 0.0 **** 0.06
9523 H 88.69016403852484 96.25112771573524 78.36105060567876 H 0.0 **** 0.06
9524 H 87.64703027061339 96.92821442410292 79.63501230938094 H 0.0 **** 0.06
9525 H 89.2395869126085 96.2527358823807 80.0542162117508 H 0.0 **** 0.06
9526 C 122.71032640492777 1.73608705760671 105.09307435862527 C 0.0 **** -0.24
9527 H 123.63787099713545 1.2013622037981122 104.88523671710158 H 0.0 **** 0.06
9528 H 122.68864778548638 2.029297420029252 106.14305046276883 H 0.0 **** 0.06
9529 H 121.86139142922553 1.0869095510495868 104.87803937102682 H 0.0 **** 0.06
9530 H 122.65702097999988 2.6260221302925117 104.46543896284682 H 0.0 **** 0.06
9531 C 43.604087582515085 49.960305866573236 66.8176031947437 C 0.0 **** -0.24
9532 H 43.6332914650472 50.14847599172026 67.89093408885572 H 0.0 **** 0.06
9533 H 43.47245244015038 48.892903846065266 66.63985847489215 H 0.0 **** 0.06
9534 H 44.538281300638936 50.29345810411297 66.3648772602645 H 0.0 **** 0.06
9535 H 42.77100432137365 50.5081928721867 66.37573756637772 H 0.0 **** 0.06
9536 C 13.5973782672 133.201358234277 120.16550423425994 C 0.0 **** -0.24
9537 H 14.158155980048377 132.43453427024946 120.69859086935858 H 0.0 **** 0.06
9538 H 14.267607080676896 133.74296621663177 119.49674473274487 H 0.0 **** 0.06
9539 H 13.15895323845858 133.8961421348186 120.88186160867329 H 0.0 **** 0.06
9540 H 12.804869880733264 132.73150167074783 119.58183446980118 H 0.0 **** 0.06
9541 C 98.30659034346067 123.54410707523652 99.50806615876682 C 0.0 **** -0.24
9542 H 97.25451483933176 123.75342135540247 99.7064113534867 H 0.0 **** 0.06
9543 H 98.42719444358835 123.24271949727914 98.46806606803837 H 0.0 **** 0.06
9544 H 98.64552186041567 122.7402450182476 100.16137180817677 H 0.0 **** 0.06
9545 H 98.89704321094297 124.44099136253132 99.69835042307656 H 0.0 **** 0.06
9546 C 40.633187267414996 79.2284304159358 61.559660125959184 C 0.0 **** -0.24
9547 H 40.254041535075885 78.2998812583281 61.13348878359196 H 0.0 **** 0.06
9548 H 39.997206354703735 80.05688390754743 61.24880626654145 H 0.0 **** 0.06
9549 H 41.65137086565011 79.39950958515472 61.21027475574812 H 0.0 **** 0.06
9550 H 40.630805372925124 79.15579187540301 62.64774563835445 H 0.0 **** 0.06
9551 C 12.732689584288352 104.61198300484392 129.1067515755059 C 0.0 **** -0.24
9552 H 13.385272898501825 103.81287019925125 128.75373196047556 H 0.0 **** 0.06
9553 H 13.33890298402656 105.44320999098974 129.46711955743 H 0.0 **** 0.06
9554 H 12.10730180917571 104.23983990572974 129.91746030759197 H 0.0 **** 0.06
9555 H 12.100228467291856 104.95246191068838 128.28671979251823 H 0.0 **** 0.06
9556 C 18.218696508976052 50.636887026366594 66.38141709845547 C 0.0 **** -0.24
9557 H 18.76405357949504 51.56776722323066 66.53573096994563 H 0.0 **** 0.06
9558 H 17.701393154235845 50.67406619302642 65.42153162848786 H 0.0 **** 0.06
9559 H 17.491013538761266 50.5062679262918 67.18210004924791 H 0.0 **** 0.06
9560 H 18.917956679416704 49.80124742240238 66.38468658570895 H 0.0 **** 0.06
9561 C 109.83498595738473 136.56722136621667 89.73162286757419 C 0.0 **** -0.24
9562 H 110.40107409247176 136.95732116898125 88.88503708547542 H 0.0 **** 0.06
9563 H 110.49807326911744 136.45008756690086 90.58901424350066 H 0.0 **** 0.06
9564 H 109.40717470483081 135.5995374280446 89.46695996171923 H 0.0 **** 0.06
9565 H 109.03342670366507 137.2624687214173 89.98309649676865 H 0.0 **** 0.06
9566 C 96.68862423071664 122.29503106735504 110.87557237419844 C 0.0 **** -0.24
9567 H 97.09704864223588 123.20735699700936 111.3118521287935 H 0.0 **** 0.06
9568 H 97.40252838255253 121.48089335533192 111.0038289452321 H 0.0 **** 0.06
9569 H 96.50376620777394 122.45214399466208 109.81305456855571 H 0.0 **** 0.06
9570 H 95.75322161066944 122.04150801212572 111.37480386199954 H 0.0 **** 0.06
9571 C 126.42065680464742 101.99971128137219 30.027758952567524 C 0.0 **** -0.24
9572 H 127.24316623458412 102.58424031088855 29.61647063704862 H 0.0 **** 0.06
9573 H 126.5158834328098 100.96233928293559 29.706767839666895 H 0.0 **** 0.06
9574 H 125.47392793124311 102.40511735004351 29.67181037948467 H 0.0 **** 0.06
9575 H 126.44973545713472 102.04767769592377 31.116830928552986 H 0.0 **** 0.06
9576 C 5.0714079149825295 66.07571493284948 126.73158476877742 C 0.0 **** -0.24
9577 H 6.146728935031263 66.14575214175544 126.56336282991565 H 0.0 **** 0.06
9578 H 4.721747219631595 66.98324157584341 127.22345552253623 H 0.0 **** 0.06
9579 H 4.857566596560844 65.21384500135055 127.36303241915702 H 0.0 **** 0.06
9580 H 4.561633256043564 65.96109945447222 125.77485797300055 H 0.0 **** 0.06
9581 C 94.3422602002101 122.73317878670179 45.386998665875325 C 0.0 **** -0.24
9582 H 94.87908026143353 123.17649681231757 46.22573963666474 H 0.0 **** 0.06
9583 H 94.51567827557368 123.32892483663863 44.49015256235328 H 0.0 **** 0.06
9584 H 93.27565547751196 122.71227846861944 45.60931280494552 H 0.0 **** 0.06
9585 H 94.69902050955557 121.7173116887032 45.22354505040642 H 0.0 **** 0.06
9586 C 86.68552846365506 54.33195421168129 6.2117508004802175 C 0.0 **** -0.24
9587 H 86.52129162555299 54.282213300056696 7.2885888604824345 H 0.0 **** 0.06
9588 H 86.25264442257436 53.45012313738968 5.7381903718747935 H 0.0 **** 0.06
9589 H 87.75526040772984 54.365795269350144 6.008535764995145 H 0.0 **** 0.06
9590 H 86.21064235270133 55.22884711873296 5.813455208533185 H 0.0 **** 0.06
9591 C 70.93640863215734 55.789841265542066 13.209013064902365 C 0.0 **** -0.24
9592 H 71.36015437878268 56.68580879094384 13.662008396709098 H 0.0 **** 0.06
9593 H 70.02806581073773 55.50934337242998 13.743210931192948 H 0.0 **** 0.06
9594 H 71.65864422618131 54.97646697012465 13.26757069407671 H 0.0 **** 0.06
9595 H 70.69650625970331 55.98945144193951 12.164664612947604 H 0.0 **** 0.06
9596 C 15.631301271745514 18.605893491019913 14.030633063199161 C 0.0 **** -0.24
9597 H 15.195023137974317 17.735324042984928 14.52032611459795 H 0.0 **** 0.06
9598 H 16.38177683765511 19.052224634966024 14.68278026980883 H 0.0 **** 0.06
9599 H 14.84740673845576 19.33579446903059 13.823562837138923 H 0.0 **** 0.06
9600 H 16.098365567021233 18.299930746670782 13.09445636566204 H 0.0 **** 0.06
9601 C 108.61208728645576 24.55109859442865 13.786803329600588 C 0.0 **** -0.24
9602 H 109.67937531499467 24.333816687361647 13.736187771242015 H 0.0 **** 0.06
9603 H 108.28943549290841 24.545235890044125 14.827823261916478 H 0.0 **** 0.06
9604 H 108.0604187831577 23.79337234758097 13.230183289611972 H 0.0 **** 0.06
9605 H 108.42072078130099 25.53230173174262 13.351195279012728 H 0.0 **** 0.06
9606 C 18.782962129776237 33.345122866213984 54.6917976502007 C 0.0 **** -0.24
9607 H 18.745395149725347 33.12064071026967 53.625735478322454 H 0.0 **** 0.06
9608 H 19.799515009255778 33.62475054044768 54.968927008749006 H 0.0 **** 0.06
9609 H 18.47973777682374 32.46509754717965 55.25975850417649 H 0.0 **** 0.06
9610 H 18.105791207450793 34.17011462852341 54.91273472379238 H 0.0 **** 0.06
9611 C 120.53088465753399 32.51931143261996 109.8136891025336 C 0.0 **** -0.24
9612 H 121.27184991239517 31.731415678281223 109.68126252598398 H 0.0 **** 0.06
9613 H 119.569795619535 32.07563616056821 110.07399696836899 H 0.0 **** 0.06
9614 H 120.43128817810731 33.08461199687301 108.88666919452753 H 0.0 **** 0.06
9615 H 120.85136372769227 33.187886908598074 110.61316148810272 H 0.0 **** 0.06
9616 C 44.77343029271276 115.89943203571403 94.02251021163659 C 0.0 **** -0.24
9617 H 44.722116157370294 115.24964725025427 93.1495528251665 H 0.0 **** 0.06
9618 H 45.41585607454374 116.75209149415625 93.80340063130603 H 0.0 **** 0.06
9619 H 45.18207616126992 115.34371766295538 94.86559922393397 H 0.0 **** 0.06
9620 H 43.77237129422946 116.25245552674957 94.27096619456213 H 0.0 **** 0.06
9621 C 33.79451914396565 45.1394259412578 38.575143937896314 C 0.0 **** -0.24
9622 H 34.38458989884062 44.22829497391416 38.47557519981598 H 0.0 **** 0.06
9623 H 32.799059591004976 44.88872343507103 38.94300619546607 H 0.0 **** 0.06
9624 H 33.70986336558503 45.62596613790515 37.60299778754455 H 0.0 **** 0.06
9625 H 34.28270534115441 45.81362259342707 39.27840999188362 H 0.0 **** 0.06
9626 C 25.98666296663398 66.67121264609051 13.301198866426489 C 0.0 **** -0.24
9627 H 26.948622082698876 66.30935656914778 12.937333605257166 H 0.0 **** 0.06
9628 H 25.99111181077494 67.76150525567448 13.314849292371676 H 0.0 **** 0.06
9629 H 25.81580638611792 66.29559012041346 14.310486163483446 H 0.0 **** 0.06
9630 H 25.19344402527063 66.31806611936588 12.642796807564153 H 0.0 **** 0.06
9631 C 31.11146443973427 88.45551552275315 121.40528242148707 C 0.0 **** -0.24
9632 H 30.31650042053616 88.52392266792127 122.14717573179766 H 0.0 **** 0.06
9633 H 31.84460164536317 87.71437010370732 121.72472318450063 H 0.0 **** 0.06
9634 H 31.598346888262483 89.42640314617718 121.30347939749541 H 0.0 **** 0.06
9635 H 30.688793186583 88.15902134463924 120.44499272332749 H 0.0 **** 0.06
9636 C 42.450213727572134 60.8856920255361 6.830949088906607 C 0.0 **** -0.24
9637 H 43.02844407435546 60.91172252057039 5.906936007361594 H 0.0 **** 0.06
9638 H 41.44208686391309 60.53079846879399 6.618158519675035 H 0.0 **** 0.06
9639 H 42.401366612880395 61.88718124200402 7.257520694544951 H 0.0 **** 0.06
9640 H 42.931910822755185 60.211820576577196 7.540328605546108 H 0.0 **** 0.06
9641 C 110.71340755790132 90.41053313367348 7.047301083439891 C 0.0 **** -0.24
9642 H 109.82688023817343 90.99771510500682 6.8075664183576805 H 0.0 **** 0.06
9643 H 110.43111430000803 89.57084738013435 7.6821139671487515 H 0.0 **** 0.06
9644 H 111.43409839274796 91.03833571387952 7.572346561241773 H 0.0 **** 0.06
9645 H 111.16105939574967 90.03706481142939 6.126528425707647 H 0.0 **** 0.06
9646 C 91.46609537944683 51.21863716702178 133.47648255579534 C 0.0 **** -0.24
9647 H 91.04552463958034 52.21389661369547 133.61850693669174 H 0.0 **** 0.06
9648 H 92.43029220483602 51.156205740544976 133.97981922840447 H 0.0 **** 0.06
9649 H 91.59848428785791 51.02850115876545 132.41111052469319 H 0.0 **** 0.06
9650 H 90.7887314369588 50.474914940503126 133.89614837435656 H 0.0 **** 0.06
9651 C 134.36061300755057 53.302757177593776 87.67716747393979 C 0.0 **** -0.24
9652 H 135.00866632538504 53.45098306913482 88.54055904854943 H 0.0 **** 0.06
9653 H 133.7585854335917 54.19755542890934 87.51709567662692 H 0.0 **** 0.06
9654 H 133.70542731484198 52.4502688834188 87.857512970102 H 0.0 **** 0.06
9655 H 134.9705241609587 53.111575041623254 86.79363655364483 H 0.0 **** 0.06
9656 C 121.2403045268928 32.45700618930647 135.20683347381035 C 0.0 **** -0.24
9657 H 121.8881734151102 32.46188906542085 136.08370926279684 H 0.0 **** 0.06
9658 H 120.67545773249896 33.38832195976079 135.16728489547398 H 0.0 **** 0.06
9659 H 120.5504858433643 31.61532606441972 135.27136895802084 H 0.0 **** 0.06
9660 H 121.8472657803407 32.360074369920426 134.30700777269223 H 0.0 **** 0.06
9661 C 59.54891651352871 51.71533390722237 92.36647176015668 C 0.0 **** -0.24
9662 H 58.79347004978733 52.47460473294828 92.57238578228527 H 0.0 **** 0.06
9663 H 59.13739692092675 50.97091494046239 91.68382898836978 H 0.0 **** 0.06
9664 H 59.841125183376164 51.23184968306961 93.29873039750203 H 0.0 **** 0.06
9665 H 60.419966861719985 52.184318031339444 91.91130899849054 H 0.0 **** 0.06
9666 C 16.604963536126917 82.06553272879461 136.31064371893382 C 0.0 **** -0.24
9667 H 17.332240462578298 82.80813765414833 136.6395696701071 H 0.0 **** 0.06
9668 H 16.42453571534422 81.35355546569038 137.11615178825127 H 0.0 **** 0.06
9669 H 16.991969065020882 81.53892852233834 135.43851828472594 H 0.0 **** 0.06
9670 H 15.67128502699483 82.56312496565423 136.04987095452117 H 0.0 **** 0.06
9671 C 23.561723254806566 28.820290524399645 123.41815007534132 C 0.0 **** -0.24
9672 H 22.9972634498275 28.15920816723161 122.76170873297394 H 0.0 **** 0.06
9673 H 23.49259709710836 29.843949694805914 123.04892171786264 H 0.0 **** 0.06
9674 H 24.60575012395941 28.50858820413434 123.43740091771127 H 0.0 **** 0.06
9675 H 23.14827867405404 28.769400565917685 124.42680015456955 H 0.0 **** 0.06
9676 C 85.40625135580963 32.04428188811036 131.1190609193666 C 0.0 **** -0.24
9677 H 86.41305778432779 31.776336813329394 130.7997314925191 H 0.0 **** 0.06
9678 H 84.9487529814917 31.19642328089418 131.62917864577815 H 0.0 **** 0.06
9679 H 84.80795323294251 32.31056517421283 130.24730483931725 H 0.0 **** 0.06
9680 H 85.45503138773124 32.89524317630833 131.79909069506743 H 0.0 **** 0.06
9681 C 25.56693125076032 19.73752071336758 103.41451730325466 C 0.0 **** -0.24
9682 H 26.342455236419056 19.202085938432425 102.86591429814209 H 0.0 **** 0.06
9683 H 25.42177996476414 19.26810651097982 104.38799484166492 H 0.0 **** 0.06
9684 H 24.63401179943378 19.702623227626887 102.85208196045421 H 0.0 **** 0.06
9685 H 25.870103202575734 20.77513688915127 103.55234500713411 H 0.0 **** 0.06
9686 C 118.7346053812496 9.206901385080528 73.47551188392008 C 0.0 **** -0.24
9687 H 119.03800129471182 10.228367021934787 73.24709141247834 H 0.0 **** 0.06
9688 H 119.30529283952143 8.84182590005554 74.32997769492593 H 0.0 **** 0.06
9689 H 118.92427149302142 8.569998235249386 72.61163388533733 H 0.0 **** 0.06
9690 H 117.67102376960145 9.18826787490832 73.71445964985526 H 0.0 **** 0.06
9691 C 46.815930654280606 86.5193606694281 106.52741513125417 C 0.0 **** -0.24
9692 H 46.68542511578244 87.55592709708873 106.21466848718197 H 0.0 **** 0.06
9693 H 45.899689331609295 86.16374739680776 106.99939196276713 H 0.0 **** 0.06
9694 H 47.63957763853335 86.45648968067297 107.23937439859544 H 0.0 **** 0.06
9695 H 47.03998448773851 85.90288184037115 105.65694641361998 H 0.0 **** 0.06
9696 C 34.1559789182148 44.88516281126556 68.33283068377702 C 0.0 **** -0.24
9697 H 33.64170991503778 43.930143448763204 68.22754322436533 H 0.0 **** 0.06
9698 H 33.58701296145233 45.53243302616181 69.00054850631012 H 0.0 **** 0.06
9699 H 34.244397898631945 45.358888398183865 67.35450953421143 H 0.0 **** 0.06
9700 H 35.14987639002473 44.71800465886798 68.74678235293587 H 0.0 **** 0.06
9701 C 127.54461899664864 58.90227664215021 48.93819844809029 C 0.0 **** -0.24
9702 H 128.01702272255454 59.68447552852679 48.34480680849474 H 0.0 **** 0.06
9703 H 128.04334724935285 57.95181169766734 48.74994979455553 H 0.0 **** 0.06
9704 H 126.4925895651786 58.82238603061843 48.662726724515224 H 0.0 **** 0.06
9705 H 127.62437203257355 59.151604470540434 49.99645889086743 H 0.0 **** 0.06
9706 C 131.22764444341283 101.24900146457651 84.19221564157566 C 0.0 **** -0.24
9707 H 131.54889231418505 102.20299684392359 84.6120915197898 H 0.0 **** 0.06
9708 H 130.2789327993392 100.95647861366456 84.64320311606507 H 0.0 **** 0.06
9709 H 131.9802743587677 100.48865843411897 84.40191249171113 H 0.0 **** 0.06
9710 H 131.10290121241113 101.34954633777744 83.11448707028221 H 0.0 **** 0.06
9711 C 105.62853298980679 21.24753014924113 55.52050679857675 C 0.0 **** -0.24
9712 H 104.69759562394307 21.706596488290415 55.85496581278059 H 0.0 **** 0.06
9713 H 105.56914742703833 21.041302242644264 54.45154071066372 H 0.0 **** 0.06
9714 H 105.7875024925977 20.314890896388647 56.06175884728043 H 0.0 **** 0.06
9715 H 106.45877834452273 21.925935432906613 55.71544257748553 H 0.0 **** 0.06
9716 C 59.184151111437075 98.48393815740562 32.10180690351845 C 0.0 **** -0.24
9717 H 58.6309117910792 99.0974403859878 31.3898733478691 H 0.0 **** 0.06
9718 H 60.042948671239714 98.0344623416807 31.60339011148757 H 0.0 **** 0.06
9719 H 58.53386756599929 97.69874654495112 32.48651129807166 H 0.0 **** 0.06
9720 H 59.52752396209098 99.10844455732587 32.92736427073723 H 0.0 **** 0.06
9721 C 42.81173556981736 116.78649943121826 20.918403526521132 C 0.0 **** -0.24
9722 H 43.48404189957239 115.96314920368184 21.159962361114054 H 0.0 **** 0.06
9723 H 41.890807311009155 116.68388014703083 21.493000358107054 H 0.0 **** 0.06
9724 H 42.58015025538941 116.76606961367241 19.85311860565193 H 0.0 **** 0.06
9725 H 43.292645240555885 117.7323003496372 21.167918198839715 H 0.0 **** 0.06
9726 C 7.390265576544667 19.998041267093733 91.57122185553493 C 0.0 **** -0.24
9727 H 8.461673528526603 19.832247974359014 91.44965811647879 H 0.0 **** 0.06
9728 H 6.8533254309354845 19.07475940478661 91.35369267759509 H 0.0 **** 0.06
9729 H 7.0640022713815895 20.77903034013191 90.88534699396854 H 0.0 **** 0.06
9730 H 7.185448931671353 20.305027253529673 92.59674893874572 H 0.0 **** 0.06
9731 C 131.49951697469842 34.24468933910905 44.235984776835465 C 0.0 **** -0.24
9732 H 130.59346615605278 33.67357095378407 44.435493449503554 H 0.0 **** 0.06
9733 H 131.23575202546323 35.19562212350439 43.77265339178979 H 0.0 **** 0.06
9734 H 132.14525590257216 33.67914577955672 43.56312977885173 H 0.0 **** 0.06
9735 H 132.0256628370367 34.42960590489452 45.1729055266664 H 0.0 **** 0.06
9736 C 117.51734261827698 51.37985162305057 93.87365430038734 C 0.0 **** -0.24
9737 H 116.83124687284115 50.65758831132035 93.43196168123613 H 0.0 **** 0.06
9738 H 118.20743975433112 51.74000907394472 93.11049270065708 H 0.0 **** 0.06
9739 H 118.07995856054478 50.903180861704016 94.67689111945087 H 0.0 **** 0.06
9740 H 116.95031168924879 52.21949850023236 94.27630692344708 H 0.0 **** 0.06
9741 C 120.32573345384827 95.5482102674431 99.86862730546821 C 0.0 **** -0.24
9742 H 119.73797214386741 96.34805645032792 99.41810006742757 H 0.0 **** 0.06
9743 H 121.3872465252266 95.7734295220118 99.76355889763437 H 0.0 **** 0.06
9744 H 120.10211475992048 94.60696806726496 99.36744289128559 H 0.0 **** 0.06
9745 H 120.07441594823229 95.46501535966124 100.92585725553236 H 0.0 **** 0.06
9746 C 90.37450000051663 4.739471151386425 5.056444848914964 C 0.0 **** -0.24
9747 H 90.90493966729849 5.1554747920656325 4.1995768205796935 H 0.0 **** 0.06
9748 H 91.00984179077298 4.799802632955448 5.94031248783881 H 0.0 **** 0.06
9749 H 90.12692616372804 3.6965530594454776 4.857955244535788 H 0.0 **** 0.06
9750 H 89.45902106312472 5.305548222871181 5.226418656592784 H 0.0 **** 0.06
9751 C 127.18741890343674 134.5955724206341 85.96183327369374 C 0.0 **** -0.24
9752 H 128.2616728873827 134.69304528032697 86.12059885714953 H 0.0 **** 0.06
9753 H 126.65465331189027 135.17773640699968 86.714156348595 H 0.0 **** 0.06
9754 H 126.90246621644917 133.54724048683332 86.0435836742692 H 0.0 **** 0.06
9755 H 126.93224839375493 134.9653013450742 84.96873428911726 H 0.0 **** 0.06
9756 C 65.88234683166718 99.3528721743404 51.66282607311025 C 0.0 **** -0.24
9757 H 65.51563553113408 99.39569818043458 52.68857498694976 H 0.0 **** 0.06
9758 H 66.31471685182333 100.31568201004569 51.39092455170426 H 0.0 **** 0.06
9759 H 65.05523127127944 99.12241424412794 50.991414835206925 H 0.0 **** 0.06
9760 H 66.64282874047996 98.57596649052358 51.58064387959233 H 0.0 **** 0.06
9761 C 45.146243982957316 120.93045362102401 72.20373635423414 C 0.0 **** -0.24
9762 H 46.009918951006924 121.01458768391788 71.54522970788685 H 0.0 **** 0.06
9763 H 44.71476258165752 121.91820723274813 72.36564269178939 H 0.0 **** 0.06
9764 H 45.45755483968388 120.50814175193898 73.15911915377171 H 0.0 **** 0.06
9765 H 44.40113561013977 120.27943355244372 71.74379553329334 H 0.0 **** 0.06
9766 C 14.148922980729282 18.217114293102014 95.23547972405818 C 0.0 **** -0.24
9767 H 13.132488509934603 18.419424737866095 94.89832917085157 H 0.0 **** 0.06
9768 H 14.700334777228278 19.154807359299397 95.31009770236153 H 0.0 **** 0.06
9769 H 14.645110831510266 17.55894603261504 94.52178563738643 H 0.0 **** 0.06
9770 H 14.118182506850928 17.734732776853974 96.21293980125378 H 0.0 **** 0.06
9771 C 37.17488523949871 12.9140937787148 84.05333610677022 C 0.0 **** -0.24
9772 H 37.936960291667106 12.457349002701733 83.42154665908386 H 0.0 **** 0.06
9773 H 37.56383002514849 13.030265860833822 85.06575012264543 H 0.0 **** 0.06
9774 H 36.29151125748507 12.27600490475578 84.07459762212484 H 0.0 **** 0.06
9775 H 36.9082270507333 13.891240978457006 83.6523052357327 H 0.0 **** 0.06
9776 C 49.88947720388752 125.24239806330274 24.989050598483416 C 0.0 **** -0.24
9777 H 50.41956701303842 125.15324086030085 24.040640948496424 H 0.0 **** 0.06
9778 H 50.33557498662829 126.04194691564192 25.58046032129782 H 0.0 **** 0.06
9779 H 49.96144221672563 124.30173762557655 25.535125726169923 H 0.0 **** 0.06
9780 H 48.84108734413701 125.47296596281149 24.798613658168364 H 0.0 **** 0.06
9781 C 52.482985571841056 120.05111153874458 21.61200767605355 C 0.0 **** -0.24
9782 H 52.301708542526285 119.90310584842734 22.676870598604204 H 0.0 **** 0.06
9783 H 53.38416146924882 119.51216561171327 21.318778460402655 H 0.0 **** 0.06
9784 H 52.61318513690435 121.11444461167619 21.41109001572451 H 0.0 **** 0.06
9785 H 51.63207048156602 119.67519197386275 21.043321397908578 H 0.0 **** 0.06
9786 C 128.85608672938136 130.40160791591697 92.38342672874695 C 0.0 **** -0.24
9787 H 129.2137476701447 130.59274044623976 93.39528990093939 H 0.0 **** 0.06
9788 H 129.67840156986847 130.02790099162868 91.77295025910657 H 0.0 **** 0.06
9789 H 128.4729806762358 131.32594276794688 91.95227380134033 H 0.0 **** 0.06
9790 H 128.05930152261698 129.6577831914353 92.41578759618083 H 0.0 **** 0.06
9791 C 55.24988055743938 71.70650986055716 68.86220945550713 C 0.0 **** -0.24
9792 H 56.05960829185523 71.92111832753096 68.16347034139264 H 0.0 **** 0.06
9793 H 54.400728727692155 72.35266067049935 68.64227467228403 H 0.0 **** 0.06
9794 H 55.59254630292844 71.88919903312876 69.88030172936033 H 0.0 **** 0.06
9795 H 54.94973825030752 70.66385176157436 68.76112674086727 H 0.0 **** 0.06
9796 C 13.601719156866665 105.17353668915534 91.00462107100725 C 0.0 **** -0.24
9797 H 13.979482861973047 106.1908537415591 91.10927613554728 H 0.0 **** 0.06
9798 H 14.174982115595014 104.64981237861633 90.23821152615045 H 0.0 **** 0.06
9799 H 12.551199768954167 105.2035308632316 90.714115540568 H 0.0 **** 0.06
9800 H 13.701491401465582 104.6492897089048 91.95453876208757 H 0.0 **** 0.06
9801 C 11.382078210131851 32.28336246180686 59.85175483162533 C 0.0 **** -0.24
9802 H 11.394388439485937 31.35332244054854 60.420119223381334 H 0.0 **** 0.06
9803 H 11.259617640074538 33.12470004734544 60.533459689300116 H 0.0 **** 0.06
9804 H 10.553900131834553 32.26496852531244 59.14299054290039 H 0.0 **** 0.06
9805 H 12.32268249770965 32.38852594178627 59.308194876755266 H 0.0 **** 0.06
9806 C 52.41823621586502 28.898536648982443 45.37526610662084 C 0.0 **** -0.24
9807 H 53.474413375217694 28.937743027310496 45.64150044273549 H 0.0 **** 0.06
9808 H 52.177357293688374 29.736759692406892 44.72108221879157 H 0.0 **** 0.06
9809 H 51.812539007453125 28.956957013786912 46.27896515017632 H 0.0 **** 0.06
9810 H 52.20910684455987 27.96206216616106 44.85742197267431 H 0.0 **** 0.06
9811 C 0.3994171296871798 83.08207023781921 34.28947434662746 C 0.0 **** -0.24
9812 H 0.8376358660088954 82.11873464042644 34.02948606500041 H 0.0 **** 0.06
9813 H -0.04042230193633145 83.02418749331085 35.285911498677194 H 0.0 **** 0.06
9814 H -0.37373319556513707 83.33693065078737 33.56508510298221 H 0.0 **** 0.06
9815 H 1.1743333292611169 83.8490722903703 34.27866536788622 H 0.0 **** 0.06
9816 C 83.45215204064264 60.37930946451797 84.42539155040333 C 0.0 **** -0.24
9817 H 83.3531519508801 59.99912353033636 85.44160346224976 H 0.0 **** 0.06
9818 H 84.4040931694213 60.054041150956024 84.00715642728386 H 0.0 **** 0.06
9819 H 83.4136649161811 61.468817216892674 84.43941611970598 H 0.0 **** 0.06
9820 H 82.63547514570278 59.99521906327092 83.81315096741821 H 0.0 **** 0.06
9821 C 55.979320611200706 77.30146659884775 65.03577596072057 C 0.0 **** -0.24
9822 H 56.61863362517478 77.54677235748068 64.1880731892901 H 0.0 **** 0.06
9823 H 56.49856116689783 77.54019197445382 65.9636900085103 H 0.0 **** 0.06
9824 H 55.74244687790727 76.23745534537136 65.01501603190536 H 0.0 **** 0.06
9825 H 55.05730846317444 77.88057260591222 64.97486665710107 H 0.0 **** 0.06
9826 C 64.77008982962573 91.00174597079575 124.49766267595297 C 0.0 **** -0.24
9827 H 65.43437428831616 90.15416512667537 124.66917645955624 H 0.0 **** 0.06
9828 H 64.57519141108705 91.09984436084244 123.42952673251486 H 0.0 **** 0.06
9829 H 65.2415825219781 91.9128085891416 124.86591069177717 H 0.0 **** 0.06
9830 H 63.83084314536951 90.8401371575012 125.02545739197916 H 0.0 **** 0.06
9831 C 10.933923309148895 125.9712963859992 68.65760378904389 C 0.0 **** -0.24
9832 H 11.478479248954756 126.84653697458076 69.01137318508458 H 0.0 **** 0.06
9833 H 10.390373129181711 125.52057174169606 69.48716843227386 H 0.0 **** 0.06
9834 H 11.638704738798225 125.2468538556839 68.24794505723354 H 0.0 **** 0.06
9835 H 10.230118905674743 126.27144086175107 67.88127865262561 H 0.0 **** 0.06
9836 C 90.41097782272624 19.764865580970834 115.36376245318115 C 0.0 **** -0.24
9837 H 91.34832154137649 19.297649958374897 115.66389963051392 H 0.0 **** 0.06
9838 H 89.65541759065825 19.58734845992028 116.13051702340965 H 0.0 **** 0.06
9839 H 90.07643329183344 19.33666932029673 114.41936373578847 H 0.0 **** 0.06
9840 H 90.56113674103075 20.837672941185865 115.24395545946277 H 0.0 **** 0.06
9841 C 117.15347313332236 66.84746769919347 136.61193595577646 C 0.0 **** -0.24
9842 H 117.08550487093197 67.61607127021828 135.8424959674544 H 0.0 **** 0.06
9843 H 116.25883701217816 66.87669430647725 137.23407266610997 H 0.0 **** 0.06
9844 H 118.03242773471433 67.02853342799007 137.2294163231275 H 0.0 **** 0.06
9845 H 117.2362289203293 65.86843481226077 136.13997499573162 H 0.0 **** 0.06
9846 C 33.072024933044204 90.20603386069001 76.46072446499949 C 0.0 **** -0.24
9847 H 32.48128576698239 91.12141979137806 76.4841096577284 H 0.0 **** 0.06
9848 H 32.62123861105986 89.49989373969828 75.76315590269199 H 0.0 **** 0.06
9849 H 33.09856414487928 89.76646225378511 77.45807022187384 H 0.0 **** 0.06
9850 H 34.08793384782781 90.43802343964589 76.13910507687442 H 0.0 **** 0.06
9851 C 94.60567421425445 127.20132121309038 72.17836670202217 C 0.0 **** -0.24
9852 H 95.42203196368476 126.70044442707143 71.6571224462021 H 0.0 **** 0.06
9853 H 93.83713192500302 127.4850159491373 71.45919278721237 H 0.0 **** 0.06
9854 H 94.98569193974525 128.09467040853139 72.67449856933047 H 0.0 **** 0.06
9855 H 94.1793799585347 126.52632497605009 72.91960977177303 H 0.0 **** 0.06
9856 C 104.28961215342258 87.98698851984977 22.82288604580725 C 0.0 **** -0.24
9857 H 104.01089797020984 87.10495753966245 22.24507129860862 H 0.0 **** 0.06
9858 H 103.38944111181365 88.51149335401988 23.141959384996056 H 0.0 **** 0.06
9859 H 104.89756430140503 88.6489331387088 22.205433527883557 H 0.0 **** 0.06
9860 H 104.86200059677611 87.680618981625 23.698805144051192 H 0.0 **** 0.06
9861 C 42.828129500045655 54.1646707307965 79.82055392929931 C 0.0 **** -0.24
9862 H 43.17668198702635 54.02681871292134 78.79678390152941 H 0.0 **** 0.06
9863 H 42.62448791444327 53.19221440325617 80.26865419679677 H 0.0 **** 0.06
9864 H 41.91555425058742 54.7611886664572 79.81518233566766 H 0.0 **** 0.06
9865 H 43.59558919839783 54.67953449050009 80.39880127971477 H 0.0 **** 0.06
9866 C 124.86585330208638 22.148893032995886 107.68553566606673 C 0.0 **** -0.24
9867 H 124.70415238474916 23.21887211212902 107.81455746416887 H 0.0 **** 0.06
9868 H 125.8992127680236 21.97202430294726 107.38294874057868 H 0.0 **** 0.06
9869 H 124.19269254288169 21.76914151127005 106.91772815148977 H 0.0 **** 0.06
9870 H 124.67067710781991 21.636075469886407 108.62772964533548 H 0.0 **** 0.06
9871 C 40.812773328814046 102.15930410038351 61.323907398538466 C 0.0 **** -0.24
9872 H 41.86886493716378 102.40156731892353 61.19929529394649 H 0.0 **** 0.06
9873 H 40.68020075689088 101.56613843394967 62.22834094259092 H 0.0 **** 0.06
9874 H 40.46838165915821 101.589374149724 60.460717204805746 H 0.0 **** 0.06
9875 H 40.2368449863108 103.0805884159563 61.40471435605171 H 0.0 **** 0.06
9876 C 73.78042016506099 88.45611398740414 130.33472630831068 C 0.0 **** -0.24
9877 H 73.16404463347412 88.04975359888365 131.13707444555996 H 0.0 **** 0.06
9878 H 73.39072785067636 88.12299291578455 129.37293511323537 H 0.0 **** 0.06
9879 H 74.80639671268446 88.10732713818177 130.4517344845059 H 0.0 **** 0.06
9880 H 73.76061871429839 89.54542803517889 130.37810724549627 H 0.0 **** 0.06
9881 C 30.19919305031499 33.822415858590745 100.38014772040918 C 0.0 **** -0.24
9882 H 29.20183514900748 33.437641367656056 100.16421733853878 H 0.0 **** 0.06
9883 H 30.1264419393558 34.62823242640383 101.11131189430435 H 0.0 **** 0.06
9884 H 30.647536826282817 34.20251846166806 99.46227467586101 H 0.0 **** 0.06
9885 H 30.818117487079377 33.02040429324802 100.78236414335566 H 0.0 **** 0.06
9886 C 70.57184600776947 54.5457179352297 46.948616912382874 C 0.0 **** -0.24
9887 H 70.50184636623743 53.747272333522915 47.68625277099056 H 0.0 **** 0.06
9888 H 71.53719115669105 54.49014431743231 46.44419998246414 H 0.0 **** 0.06
9889 H 70.4777088552647 55.510565788362385 47.44760379610227 H 0.0 **** 0.06
9890 H 69.77177339455395 54.43572516744382 46.21630380669973 H 0.0 **** 0.06
9891 C 116.62241592273642 17.802453558127695 129.2615894242033 C 0.0 **** -0.24
9892 H 117.3241763380571 18.637244099002913 129.27808803954076 H 0.0 **** 0.06
9893 H 116.5370733139884 17.380013384097765 130.26281117992454 H 0.0 **** 0.06
9894 H 116.98309545786196 17.038705222557724 128.57370880651297 H 0.0 **** 0.06
9895 H 115.64544737985864 18.156621735399 128.9323062013783 H 0.0 **** 0.06
9896 C 5.773271766655743 75.27503072741652 64.19252771125264 C 0.0 **** -0.24
9897 H 6.151842876136499 76.16784703375006 63.69346250010784 H 0.0 **** 0.06
9898 H 5.119336185445263 74.72914076269964 63.511445830218804 H 0.0 **** 0.06
9899 H 5.212807095642521 75.56532423270072 65.08006982484613 H 0.0 **** 0.06
9900 H 6.60996142370421 74.63919456046179 64.48176436773531 H 0.0 **** 0.06
9901 C 91.11260349971711 47.98207487373679 47.94675566650977 C 0.0 **** -0.24
9902 H 91.30461635424247 48.19378126533883 46.89482575633957 H 0.0 **** 0.06
9903 H 91.2609391333953 46.91841121170974 48.13482545651817 H 0.0 **** 0.06
9904 H 90.08638589773119 48.254628721800444 48.19138774895822 H 0.0 **** 0.06
9905 H 91.79979067833114 48.560023865868715 48.56491245750078 H 0.0 **** 0.06
9906 C 56.90727966833472 97.22226845311889 98.0458979242354 C 0.0 **** -0.24
9907 H 56.35550292862236 96.4609558539938 98.59825439104004 H 0.0 **** 0.06
9908 H 57.95745410670398 97.193922582348 98.33887793644482 H 0.0 **** 0.06
9909 H 56.493118433463295 98.20523893209122 98.27184615676285 H 0.0 **** 0.06
9910 H 56.82243588368013 97.02853480396368 96.97752075428893 H 0.0 **** 0.06
9911 C 114.7645357628526 11.155885816463151 59.309926756034685 C 0.0 **** -0.24
9912 H 115.6546975358786 10.533621185456528 59.222503824789726 H 0.0 **** 0.06
9913 H 114.03405122164716 10.657617953938608 59.94795620193153 H 0.0 **** 0.06
9914 H 114.33511608917391 11.315534694552678 58.32072957891329 H 0.0 **** 0.06
9915 H 115.035046468985 12.11613758342168 59.7484145406859 H 0.0 **** 0.06
9916 C 86.80394060408746 32.82040231077634 71.64305856843907 C 0.0 **** -0.24
9917 H 87.31705425230531 32.65741436963145 72.59087204242746 H 0.0 **** 0.06
9918 H 86.04335594531825 32.050680932688536 71.50554812997802 H 0.0 **** 0.06
9919 H 87.52437381733472 32.76929162074054 70.82699624183522 H 0.0 **** 0.06
9920 H 86.3310753919201 33.80183534222593 71.6493593461812 H 0.0 **** 0.06
9921 C 12.357945091914331 129.22368618126794 25.344457163482403 C 0.0 **** -0.24
9922 H 12.2881384113806 130.22541809017608 25.768873573237293 H 0.0 **** 0.06
9923 H 11.37797401135768 128.745438920849 25.379973413772937 H 0.0 **** 0.06
9924 H 13.070858626758934 128.6345791620826 25.92096670628559 H 0.0 **** 0.06
9925 H 12.693136875395481 129.2900037088162 24.309664193858836 H 0.0 **** 0.06
9926 C 86.84653237726252 79.45325316800229 64.11794922075697 C 0.0 **** -0.24
9927 H 86.50341724770522 78.73532423950522 64.86314324925182 H 0.0 **** 0.06
9928 H 87.18540961998781 78.92048701014066 63.229481722806725 H 0.0 **** 0.06
9929 H 87.67137349044413 80.0362575370266 64.52940295168027 H 0.0 **** 0.06
9930 H 86.02696860491162 80.1213993259985 63.85193976265792 H 0.0 **** 0.06
9931 C 51.890596784721325 11.034032138013742 31.439724531022662 C 0.0 **** -0.24
9932 H 51.583402410581755 9.998124239591391 31.58159588505317 H 0.0 **** 0.06
9933 H 52.906749862806706 11.166115959907415 31.812610427756823 H 0.0 **** 0.06
9934 H 51.214040466541704 11.691542073312121 31.986516390974174 H 0.0 **** 0.06
9935 H 51.85819439895512 11.2803462792441 30.37817542030637 H 0.0 **** 0.06
9936 C 56.038301868764506 99.74327327913704 83.4447615928139 C 0.0 **** -0.24
9937 H 56.321849446425176 98.96426263808246 82.73612323972111 H 0.0 **** 0.06
9938 H 55.113573119216255 100.21637664107155 83.11267566591908 H 0.0 **** 0.06
9939 H 56.82968968931681 100.49043706721446 83.49882289000436 H 0.0 **** 0.06
9940 H 55.88763005529404 99.30094769045729 84.42951645559847 H 0.0 **** 0.06
9941 C 78.35797208785722 65.70884952539669 57.63828482590225 C 0.0 **** -0.24
9942 H 79.22007803617865 65.46876750792109 57.01635074541602 H 0.0 **** 0.06
9943 H 78.69945795869828 66.08655497595032 58.60232117345521 H 0.0 **** 0.06
9944 H 77.75862225395461 64.81211374645324 57.79110078248834 H 0.0 **** 0.06
9945 H 77.75483885757806 66.47005000696845 57.14400740623165 H 0.0 **** 0.06
9946 C 26.065843345558164 11.921831408112823 9.892424982226515 C 0.0 **** -0.24
9947 H 25.631758407121282 12.050282191744934 10.883984725798214 H 0.0 **** 0.06
9948 H 26.314433743270456 10.872100945166014 9.737357848070857 H 0.0 **** 0.06
9949 H 26.969396973856192 12.526135395054443 9.810001641178616 H 0.0 **** 0.06
9950 H 25.345636314106372 12.240569662120077 9.137826483896163 H 0.0 **** 0.06
9951 C 132.69111609370685 31.292529163652176 85.3962614910746 C 0.0 **** -0.24
9952 H 132.14389995734757 31.95492061046781 84.72530683807607 H 0.0 **** 0.06
9953 H 132.16649212609332 30.340429658417634 85.4726830955779 H 0.0 **** 0.06
9954 H 132.75780274869857 31.75132795094558 86.3825944016448 H 0.0 **** 0.06
9955 H 133.69425647964454 31.126412657774836 85.00414197723383 H 0.0 **** 0.06
9956 C 19.579908475313232 19.830514583807428 32.87661650416322 C 0.0 **** -0.24
9957 H 20.648720978464837 19.782126591383076 32.664582145306554 H 0.0 **** 0.06
9958 H 19.322187721916748 19.070596192010555 33.615261329049474 H 0.0 **** 0.06
9959 H 19.019059096647027 19.65201677091926 31.959499532363395 H 0.0 **** 0.06
9960 H 19.332943590505636 20.81693426616505 33.268176949323276 H 0.0 **** 0.06
9961 C 11.736172144524971 98.74936594173273 58.573755218275096 C 0.0 **** -0.24
9962 H 11.738230120752405 99.64923973820423 57.95990922241339 H 0.0 **** 0.06
9963 H 11.928042824232648 99.01808743959323 59.61290125967412 H 0.0 **** 0.06
9964 H 12.514621463450624 98.06988147302843 58.22468410402013 H 0.0 **** 0.06
9965 H 10.765244858557253 98.2594521311355 58.49802714217515 H 0.0 **** 0.06
9966 C 122.23248147231085 31.45228356352414 29.69937696359034 C 0.0 **** -0.24
9967 H 122.4083450291203 32.36870391995837 29.136138296210106 H 0.0 **** 0.06
9968 H 122.62103819304014 31.56939021674428 30.711511250585204 H 0.0 **** 0.06
9969 H 122.73916739940984 30.622045391920828 29.208824270128048 H 0.0 **** 0.06
9970 H 121.1620894730968 31.251834411329625 29.74168711627391 H 0.0 **** 0.06
9971 C 11.253137726196172 13.181412214530212 12.993398226675708 C 0.0 **** -0.24
9972 H 10.78403650250607 14.08786079825461 12.612893306771753 H 0.0 **** 0.06
9973 H 10.540751505131368 12.357136484311013 12.94654204649629 H 0.0 **** 0.06
9974 H 11.562094179322827 13.337611288159849 14.026922206893346 H 0.0 **** 0.06
9975 H 12.126415960092032 12.941327045340358 12.3856520876447 H 0.0 **** 0.06
9976 C 109.11120358737892 134.64865317775093 23.472378166004276 C 0.0 **** -0.24
9977 H 109.07402593974147 134.199757715579 24.465868393573743 H 0.0 **** 0.06
9978 H 109.27545359902321 133.86816273379543 22.72817809257012 H 0.0 **** 0.06
9979 H 109.92793416372297 135.36939493978997 23.42934849806275 H 0.0 **** 0.06
9980 H 108.16834615552536 135.15478047213088 23.267448806531235 H 0.0 **** 0.06
9981 C 116.8802167638402 71.87469979088775 115.94183840584475 C 0.0 **** -0.24
9982 H 116.13489758963087 72.6325600371976 115.69937755872809 H 0.0 **** 0.06
9983 H 117.8690141080674 72.3337120840394 115.97146345733248 H 0.0 **** 0.06
9984 H 116.86386693975982 71.09395917943186 115.18044894622878 H 0.0 **** 0.06
9985 H 116.65220738680526 71.43808705666947 116.9138291840433 H 0.0 **** 0.06
9986 C 90.22266501406128 93.58599869870919 8.781176370094755 C 0.0 **** -0.24
9987 H 89.76837887550397 92.78282973083685 9.361713873372679 H 0.0 **** 0.06
9988 H 89.43996059889322 94.20553398425636 8.343940886444358 H 0.0 **** 0.06
9989 H 90.8343517015637 93.15801911731432 7.986515455600227 H 0.0 **** 0.06
9990 H 90.84878963856517 94.19537925578594 9.431950752371876 H 0.0 **** 0.06
9991 C 4.561240293760989 29.585405396243637 77.00832069156729 C 0.0 **** -0.24
9992 H 4.50242514153922 28.60592119608313 76.53298546952362 H 0.0 **** 0.06
9993 H 5.315610323892315 29.56195680538842 77.79558503321664 H 0.0 **** 0.06
9994 H 3.5922101918326916 29.837997302751113 77.4392569651605 H 0.0 **** 0.06
9995 H 4.8345238075422685 30.33302534896137 76.26470686791174 H 0.0 **** 0.06
9996 C 79.90392505884374 110.19626425456704 41.36331859166284 C 0.0 **** -0.24
9997 H 78.85496600532443 110.4705695258842 41.47635661554679 H 0.0 **** 0.06
9998 H 80.0037450011754 109.11179455005833 41.40845726401559 H 0.0 **** 0.06
9999 H 80.48614540698169 110.6492009971333 42.16592487426492 H 0.0 **** 0.06
10000 H 80.27186729237269 110.55534619261906 40.401818321815306 H 0.0 **** 0.06
10001 C 82.23023579951473 82.18019461029314 82.88147531080836 C 0.0 **** -0.24
10002 H 83.2308217240024 82.0839665601867 82.45882997915595 H 0.0 **** 0.06
10003 H 81.76217218239515 81.19799518584318 82.9323941041745 H 0.0 **** 0.06
10004 H 81.63082957211628 82.83719399751547 82.2501520128057 H 0.0 **** 0.06
10005 H 82.2995000096806 82.60336362657517 83.88397396438017 H 0.0 **** 0.06
10006 C 55.06879709701131 92.08494124736583 117.25095418918752 C 0.0 **** -0.24
10007 H 55.99636535348408 91.53274565740574 117.4040660819042 H 0.0 **** 0.06
10008 H 54.48996891574659 92.08440615997826 118.17425841083687 H 0.0 **** 0.06
10009 H 54.49077062211653 91.6110190135474 116.45805625118123 H 0.0 **** 0.06
10010 H 55.30090801478222 93.11174318001964 116.96745216711747 H 0.0 **** 0.06
10011 C 33.63254628518731 114.10139373875919 49.707341493782025 C 0.0 **** -0.24
10012 H 33.77051622986863 113.9069090117986 50.77130299823362 H 0.0 **** 0.06
10013 H 34.21482332292931 114.97661237251123 49.41960229848307 H 0.0 **** 0.06
10014 H 32.57681087944433 114.28379238006204 49.505977236585636 H 0.0 **** 0.06
10015 H 33.96834920699323 113.23703117379839 49.13432419736179 H 0.0 **** 0.06
10016 C 47.90119579020646 128.288679615685 20.957456381769276 C 0.0 **** -0.24
10017 H 47.375400490326115 129.1971335360331 20.661492031514484 H 0.0 **** 0.06
10018 H 48.32268116604645 127.8092416181836 20.0741776447139 H 0.0 **** 0.06
10019 H 47.20336351218987 127.60816074370197 21.444356981737997 H 0.0 **** 0.06
10020 H 48.7031556072472 128.5442709263343 21.650301684918674 H 0.0 **** 0.06
10021 C 96.35340611955525 27.47565831523349 82.97689282385589 C 0.0 **** -0.24
10022 H 95.339012491257 27.174115850356486 82.71583388553412 H 0.0 **** 0.06
10023 H 96.3342676223993 28.040857775586744 83.90955429654119 H 0.0 **** 0.06
10024 H 96.76418787612829 28.098704041119987 82.1822725087364 H 0.0 **** 0.06
10025 H 96.97518973466327 26.589214332250947 83.1025561314715 H 0.0 **** 0.06
10026 C 22.170495996410978 31.07643442264248 117.63338117386235 C 0.0 **** -0.24
10027 H 22.038230800750398 31.259588683133074 116.56655759642507 H 0.0 **** 0.06
10028 H 21.318769126293546 31.481638115967506 118.17893990450656 H 0.0 **** 0.06
10029 H 23.084578940715033 31.56108614643137 117.97424635379741 H 0.0 **** 0.06
10030 H 22.239072612766165 30.00374767124339 117.81111240187113 H 0.0 **** 0.06
10031 C 0.35506887925504316 84.30154995150559 99.37094833420267 C 0.0 **** -0.24
10032 H 1.2412926252623606 84.91919847718134 99.22562859071512 H 0.0 **** 0.06
10033 H -0.36570553185885046 84.50999483199209 98.57980038471972 H 0.0 **** 0.06
10034 H -0.09127158780449918 84.52765664285027 100.3388506901496 H 0.0 **** 0.06
10035 H 0.6365804924645317 83.24829884047415 99.33764001021649 H 0.0 **** 0.06
10036 C 15.381018366128984 118.4498650545205 89.4985796513251 C 0.0 **** -0.24
10037 H 15.918126512174922 119.33303210720862 89.15380316864042 H 0.0 **** 0.06
10038 H 14.530065490848813 118.75767133183345 90.10654147511697 H 0.0 **** 0.06
10039 H 16.048405858978356 117.82821288091304 90.09477721465105 H 0.0 **** 0.06
10040 H 15.02710003150861 117.88218906272667 88.63772956878682 H 0.0 **** 0.06
10041 C 74.21489457280691 63.048469557920185 79.8343111574321 C 0.0 **** -0.24
10042 H 74.72818726733635 63.476296859450485 80.6961809436069 H 0.0 **** 0.06
10043 H 73.17426880567848 62.85168711548755 80.09240949405158 H 0.0 **** 0.06
10044 H 74.70226379682049 62.115292177957485 79.54913164941794 H 0.0 **** 0.06
10045 H 74.25766672626014 63.74980355790893 79.00109616839863 H 0.0 **** 0.06
10046 C 24.77130757071032 1.1682828966822 86.21445094277942 C 0.0 **** -0.24
10047 H 25.286482488165916 1.110407005304893 85.2561601727615 H 0.0 **** 0.06
10048 H 25.282936832192263 0.5354196239791804 86.9400787204876 H 0.0 **** 0.06
10049 H 23.743421767237777 0.8273373528824663 86.09574156400032 H 0.0 **** 0.06
10050 H 24.774033607328278 2.1997537108779 86.56694150158918 H 0.0 **** 0.06
10051 C 91.44581019856027 14.270784701698403 59.4710111320685 C 0.0 **** -0.24
10052 H 91.43786372857589 15.335163232957427 59.23387971629927 H 0.0 **** 0.06
10053 H 90.43155240167803 13.940679395002064 59.69500144116897 H 0.0 **** 0.06
10054 H 92.08409016501659 14.09718615553777 60.33733110097191 H 0.0 **** 0.06
10055 H 91.83170921389251 13.711038716060386 58.61832039119105 H 0.0 **** 0.06
10056 C 80.17027682338255 84.92032754263816 114.50369306185499 C 0.0 **** -0.24
10057 H 80.44451849582032 85.97500108890429 114.53698425098852 H 0.0 **** 0.06
10058 H 80.25127805265487 84.49192092389355 115.50332233795552 H 0.0 **** 0.06
10059 H 80.84187977093166 84.39229865449268 113.82655493053323 H 0.0 **** 0.06
10060 H 79.14441993225967 84.82199283650226 114.14802326100201 H 0.0 **** 0.06
10061 C 39.34906491387477 112.51877539227331 21.834957858455013 C 0.0 **** -0.24
10062 H 38.9519110375237 113.29548516292357 21.182003221384207 H 0.0 **** 0.06
10063 H 39.848090237865975 111.75769268534776 21.232925448849088 H 0.0 **** 0.06
10064 H 38.53347370136632 112.0622786442475 22.393900303882624 H 0.0 **** 0.06
10065 H 40.06416022099752 112.95906879250373 22.52933632288258 H 0.0 **** 0.06
10066 C 32.49080180595018 20.251021750169343 22.705938956441486 C 0.0 **** -0.24
10067 H 33.066649509499555 20.95852508329625 22.10814669876109 H 0.0 **** 0.06
10068 H 31.611281324791015 19.93457482605058 22.145791565557772 H 0.0 **** 0.06
10069 H 32.17820091211217 20.731140027462033 23.63333649360797 H 0.0 **** 0.06
10070 H 33.10811824851874 19.38297677652605 22.936137502876676 H 0.0 **** 0.06
10071 C 92.74901736753907 45.237737838547446 105.04285449237695 C 0.0 **** -0.24
10072 H 92.21937644946621 44.33838185467907 104.72767295464095 H 0.0 **** 0.06
10073 H 92.28408343038296 45.63548132207987 105.9452499954984 H 0.0 **** 0.06
10074 H 92.7015459720339 45.98418525231497 104.24999146171517 H 0.0 **** 0.06
10075 H 93.79053686521013 44.99168924390253 105.24900315931157 H 0.0 **** 0.06
10076 C 85.11672045839083 51.85293935320715 2.3687416462824906 C 0.0 **** -0.24
10077 H 84.67775875153438 51.28609673338923 1.5488891986355142 H 0.0 **** 0.06
10078 H 85.7295267510085 52.65985487642001 1.9651516140782448 H 0.0 **** 0.06
10079 H 85.73894016282753 51.19301569188923 2.9743805859006507 H 0.0 **** 0.06
10080 H 84.32374898285113 52.272158449386495 2.986734829331361 H 0.0 **** 0.06
10081 C 59.33624785750736 1.224794485225118 11.640946191644332 C 0.0 **** -0.24
10082 H 60.36327937362499 1.579555125684152 11.73384543417481 H 0.0 **** 0.06
10083 H 59.04920227444782 1.2133031146432245 10.590035258372382 H 0.0 **** 0.06
10084 H 58.67223138961323 1.8900857326910057 12.19298944772467 H 0.0 **** 0.06
10085 H 59.26253284804474 0.21701878113336193 12.050276513504826 H 0.0 **** 0.06
10086 C 25.24707515344201 102.91831535516451 117.24845848770266 C 0.0 **** -0.24
10087 H 25.19218387292065 103.86546560337459 117.78507791974744 H 0.0 **** 0.06
10088 H 25.554630316001322 102.12843736690465 117.93490930319888 H 0.0 **** 0.06
10089 H 25.974302221577943 103.00124665355635 116.44015699775787 H 0.0 **** 0.06
10090 H 24.2682693966116 102.67873695951458 116.83303275239868 H 0.0 **** 0.06
10091 C 134.64628214026087 0.9461841317485948 35.1849864255126 C 0.0 **** -0.24
10092 H 135.68136645120538 1.2476916868846786 35.34478227391494 H 0.0 **** 0.06
10093 H 133.97991519484688 1.6851042836471493 35.62972022530809 H 0.0 **** 0.06
10094 H 134.47583929166996 -0.025118808404556603 35.651266361641945 H 0.0 **** 0.06
10095 H 134.44887144023343 0.8750733122973884 34.115996122995256 H 0.0 **** 0.06
10096 C 127.65085550371765 2.111883272370221 73.9768545620735 C 0.0 **** -0.24
10097 H 128.20932214460123 1.1756247166713365 74.02125161044742 H 0.0 **** 0.06
10098 H 128.1342921717137 2.7897912989826636 73.27382559371704 H 0.0 **** 0.06
10099 H 127.62855969957042 2.567924572801985 74.96614786951383 H 0.0 **** 0.06
10100 H 126.63221330535919 1.9110295499741596 73.64593933595079 H 0.0 **** 0.06
10101 C 115.23132203170519 102.20149811970629 113.27836079715334 C 0.0 **** -0.24
10102 H 114.21238030073064 102.5894661663513 113.25829453911246 H 0.0 **** 0.06
10103 H 115.40008156939558 101.57737615265951 112.40046212482093 H 0.0 **** 0.06
10104 H 115.37506783650568 101.60683695620446 114.18122920883314 H 0.0 **** 0.06
10105 H 115.935937714277 103.03309348615039 113.2744948228937 H 0.0 **** 0.06
10106 C 131.59966724287588 134.5902636281398 119.7748857947739 C 0.0 **** -0.24
10107 H 131.30814861351192 134.02911391493163 118.88736513301825 H 0.0 **** 0.06
10108 H 131.2331114245325 135.61464087673147 119.6934287478976 H 0.0 **** 0.06
10109 H 132.68658341098717 134.59897614059642 119.85858414851452 H 0.0 **** 0.06
10110 H 131.17134100356967 134.1199098969467 120.65969822593088 H 0.0 **** 0.06
10111 C 122.59459160078222 79.56258352970781 52.754907145040534 C 0.0 **** -0.24
10112 H 122.8890447396856 80.38333170802812 52.100488424794605 H 0.0 **** 0.06
10113 H 122.16574519777052 78.75845713773927 52.156525500296965 H 0.0 **** 0.06
10114 H 121.85291464689466 79.91795361490819 53.47106111843436 H 0.0 **** 0.06
10115 H 123.46890688419289 79.19236538407345 53.289887848163374 H 0.0 **** 0.06
10116 C 62.81055634955885 7.256311720504755 118.01794320521097 C 0.0 **** -0.24
10117 H 63.53299622759238 7.353446891527085 117.20908331161596 H 0.0 **** 0.06
10118 H 63.076685157447315 7.936030400137952 118.82735782763586 H 0.0 **** 0.06
10119 H 62.81455932147678 6.231325594783016 118.38838816478625 H 0.0 **** 0.06
10120 H 61.81502251089228 7.504609975858102 117.64738888453402 H 0.0 **** 0.06
10121 C 4.564382861426367 91.85466589261252 58.12152737669322 C 0.0 **** -0.24
10122 H 5.360453850776082 92.05028691173925 58.84019313767135 H 0.0 **** 0.06
10123 H 4.283774854256251 92.78673861742432 57.62866760878853 H 0.0 **** 0.06
10124 H 3.6991770460390114 91.44293349050241 58.64193820130325 H 0.0 **** 0.06
10125 H 4.914369450448902 91.14088447056785 57.376400885070154 H 0.0 **** 0.06
10126 C 110.93868772496677 49.297206782335934 34.28854722141104 C 0.0 **** -0.24
10127 H 110.58884658769216 48.365049031429905 34.7298329251923 H 0.0 **** 0.06
10128 H 110.17433520292323 50.06516647457134 34.41008826753313 H 0.0 **** 0.06
10129 H 111.135866279386 49.146082281746416 33.22751563036 H 0.0 **** 0.06
10130 H 111.85428304366948 49.61452310763812 34.78684892434364 H 0.0 **** 0.06
10131 C 77.61300791057045 118.3870140414457 131.1707012613196 C 0.0 **** -0.24
10132 H 77.12246837036105 117.52114398656283 130.72440076141817 H 0.0 **** 0.06
10133 H 77.41136198120182 119.26964572552303 130.5640701768218 H 0.0 **** 0.06
10134 H 78.68750371672309 118.21208186277761 131.21499021033566 H 0.0 **** 0.06
10135 H 77.22862313499047 118.5418190271821 132.1781732253411 H 0.0 **** 0.06
10136 C 122.85102641751769 53.495198013777326 119.09405231114096 C 0.0 **** -0.24
10137 H 123.2680549622296 54.16819197090555 118.34367409199274 H 0.0 **** 0.06
10138 H 122.00516543009036 53.977984965239784 119.58322405985126 H 0.0 **** 0.06
10139 H 123.61502102498395 53.2606891977199 119.835175721616 H 0.0 **** 0.06
10140 H 122.51797252527513 52.57691023514491 118.61222491423149 H 0.0 **** 0.06
10141 C 107.70786917492676 129.7931111530346 25.087794050267348 C 0.0 **** -0.24
10142 H 108.24847064523458 129.4357704182421 24.211338853443692 H 0.0 **** 0.06
10143 H 107.62465727130306 128.98746541287198 25.816693730863392 H 0.0 **** 0.06
10144 H 106.71103206436013 130.11944388055747 24.79017211208634 H 0.0 **** 0.06
10145 H 108.24669132706488 130.63048825604534 25.530950150277135 H 0.0 **** 0.06
10146 C 92.22370781272326 49.30092373788773 24.28125929239529 C 0.0 **** -0.24
10147 H 92.14694898988068 48.821392945045076 25.257856667134632 H 0.0 **** 0.06
10148 H 92.63972716000524 50.300904048263234 24.399982913623838 H 0.0 **** 0.06
10149 H 91.23283839602357 49.368529840440914 23.83184268377269 H 0.0 **** 0.06
10150 H 92.87528746186615 48.70972860020221 23.637127805663965 H 0.0 **** 0.06
10151 C 39.45083017286143 126.72609310699022 92.24379933389476 C 0.0 **** -0.24
10152 H 40.08330877625619 127.53247639064784 92.61651494774094 H 0.0 **** 0.06
10153 H 39.371476119734155 125.94720210266689 93.00204256014345 H 0.0 **** 0.06
10154 H 39.89112005728302 126.30893594474327 91.33783862479764 H 0.0 **** 0.06
10155 H 38.45846526925109 127.11796814285736 92.01891946747517 H 0.0 **** 0.06
10156 C 93.64388233262727 22.415181431203223 11.399832373160265 C 0.0 **** -0.24
10157 H 92.92277986453219 23.181502892492105 11.683105530245342 H 0.0 **** 0.06
10158 H 93.8161635175421 21.747646169834248 12.243783144116975 H 0.0 **** 0.06
10159 H 94.58313105209454 22.88873152558888 11.113527942354239 H 0.0 **** 0.06
10160 H 93.25419132556307 21.844022928412663 10.556895264161597 H 0.0 **** 0.06
10161 C 18.95196737861704 117.50175002985128 3.5020488647882466 C 0.0 **** -0.24
10162 H 19.74620156410782 116.75631370258316 3.479559960096015 H 0.0 **** 0.06
10163 H 18.59786709827739 117.68615292433981 2.4868007575129845 H 0.0 **** 0.06
10164 H 19.33510083255146 118.42955146098103 3.9268444870136 H 0.0 **** 0.06
10165 H 18.126761388324525 117.13596808749105 4.113182003054483 H 0.0 **** 0.06
10166 C 31.917685364814986 50.70683747889544 71.04767550265072 C 0.0 **** -0.24
10167 H 31.232294071002542 49.86715504944635 71.16828774444542 H 0.0 **** 0.06
10168 H 31.41412779703569 51.51247945179334 70.51428933464533 H 0.0 **** 0.06
10169 H 32.79027812837063 50.38423758761567 70.48015174420169 H 0.0 **** 0.06
10170 H 32.23299732463781 51.061618398073136 72.02864589245212 H 0.0 **** 0.06
10171 C 28.80477498522319 62.10644499593474 121.96281334051508 C 0.0 **** -0.24
10172 H 28.62253976683838 62.09544106537089 120.88800111441228 H 0.0 **** 0.06
10173 H 29.446650603859474 62.95072173904123 122.21361309095579 H 0.0 **** 0.06
10174 H 29.29408222404721 61.17751295409016 122.2572752109826 H 0.0 **** 0.06
10175 H 27.856415027343218 62.20022779510629 122.49129911121054 H 0.0 **** 0.06
10176 C 38.39281429301292 123.30950079627763 103.4747707031305 C 0.0 **** -0.24
10177 H 37.68052248379601 122.67689011172183 102.94397110078712 H 0.0 **** 0.06
10178 H 39.18861150179117 123.6112505539736 102.79374797977192 H 0.0 **** 0.06
10179 H 38.81890263696084 122.75403877779053 104.30985854359564 H 0.0 **** 0.06
10180 H 37.879910589296856 124.19562235799964 103.85144101769001 H 0.0 **** 0.06
10181 C 22.411342272591618 25.02021765055389 116.24470836112968 C 0.0 **** -0.24
10182 H 21.667196842959093 25.467455695406628 116.90409428305813 H 0.0 **** 0.06
10183 H 22.469573992388028 25.594215145267242 115.32010412757106 H 0.0 **** 0.06
10184 H 22.12348656849185 23.992820753223157 116.01803712606576 H 0.0 **** 0.06
10185 H 23.38311550767464 25.024387842985874 116.7386106389944 H 0.0 **** 0.06
10186 C 118.31976553305509 131.5337178078006 136.37044134744193 C 0.0 **** -0.24
10187 H 118.6746920563802 131.50212240270577 137.40029373028753 H 0.0 **** 0.06
10188 H 118.9189813511014 132.2441767825788 135.80141543659272 H 0.0 **** 0.06
10189 H 117.27430539341603 131.84523186934896 136.3555669661005 H 0.0 **** 0.06
10190 H 118.40978303132522 130.54303045511594 135.9249511931798 H 0.0 **** 0.06
10191 C 3.4346512594747765 41.06720895604545 5.3171146735156185 C 0.0 **** -0.24
10192 H 4.460712885920628 41.06562599516799 4.948046743234556 H 0.0 **** 0.06
10193 H 2.745762126162276 41.10818021703398 4.473201647731571 H 0.0 **** 0.06
10194 H 3.2794793501616084 41.936572469358765 5.9553338992323575 H 0.0 **** 0.06
10195 H 3.253096758090294 40.15836715576366 5.890537372303754 H 0.0 **** 0.06
10196 C 81.70125076249928 119.63577493017641 112.44678090603153 C 0.0 **** -0.24
10197 H 82.54129593177129 119.89568459719611 111.80168540961597 H 0.0 **** 0.06
10198 H 81.12419886492216 118.83373926220735 111.9846304577301 H 0.0 **** 0.06
10199 H 81.0650252347865 120.50952829824303 112.58397472059218 H 0.0 **** 0.06
10200 H 82.07630372416156 119.30237033907315 113.41470535771796 H 0.0 **** 0.06
10201 C 29.245655279097548 35.31119701761668 96.4098191561593 C 0.0 **** -0.24
10202 H 29.01809958115723 36.37212983984466 96.50664864328081 H 0.0 **** 0.06
10203 H 29.50189238638859 35.08775732533411 95.37411585979532 H 0.0 **** 0.06
10204 H 28.374720590914762 34.724083302821725 96.703879338365 H 0.0 **** 0.06
10205 H 30.08755314978052 35.05988716490458 97.05563680694308 H 0.0 **** 0.06
10206 C 80.04105296233848 130.00704687471608 65.0245776546551 C 0.0 **** -0.24
10207 H 79.01687082414918 130.36814717475482 64.92936422524531 H 0.0 **** 0.06
10208 H 80.63844204698114 130.38601684556647 64.19478180708109 H 0.0 **** 0.06
10209 H 80.0453290919387 128.9177378931546 65.00830920473709 H 0.0 **** 0.06
10210 H 80.46298782654583 130.35823026013148 65.96679329324547 H 0.0 **** 0.06
10211 C 98.40850508009758 62.33015282698403 56.85756864753006 C 0.0 **** -0.24
10212 H 98.37568667887106 62.43156147701876 57.942058975399675 H 0.0 **** 0.06
10213 H 99.4426038268416 62.389343342635215 56.51850771808074 H 0.0 **** 0.06
10214 H 97.82957524289655 63.13403452245086 56.400886470854175 H 0.0 **** 0.06
10215 H 97.98502684001676 61.36862136878506 56.568993782245514 H 0.0 **** 0.06
10216 C 118.49572091776483 75.54838079572988 117.80322165370993 C 0.0 **** -0.24
10217 H 117.60715060528895 76.13460731450178 117.56807627461754 H 0.0 **** 0.06
10218 H 118.81479549672295 75.00060448440684 116.91637521841795 H 0.0 **** 0.06
10219 H 118.26336337503875 74.84281392705554 118.60175874845173 H 0.0 **** 0.06
10220 H 119.29532157466826 76.21370260804709 118.12751580210067 H 0.0 **** 0.06
10221 C 23.98927938766768 15.820754941166228 85.88239665360415 C 0.0 **** -0.24
10222 H 24.479974546617797 16.218317021313396 86.77095657164158 H 0.0 **** 0.06
10223 H 24.26350999233125 14.773038465962827 85.75478836395172 H 0.0 **** 0.06
10224 H 24.30700834465867 16.388430402686026 85.00834236508128 H 0.0 **** 0.06
10225 H 22.90876679524422 15.90265872796948 85.9972545527181 H 0.0 **** 0.06
10226 C 59.90129431339771 30.02588049449558 9.985036614615979 C 0.0 **** -0.24
10227 H 58.99032499021945 30.355027579882282 9.483855799237062 H 0.0 **** 0.06
10228 H 60.457899054990236 29.360763634915834 9.324014047165463 H 0.0 **** 0.06
10229 H 59.63956733287462 29.494495561647092 10.899398713718483 H 0.0 **** 0.06
10230 H 60.51455708816272 30.89237124644763 10.230586132076922 H 0.0 **** 0.06
10231 C 38.085787130648356 17.745339931193456 129.0818889906637 C 0.0 **** -0.24
10232 H 37.16007666114655 18.056155953161493 128.59850245011214 H 0.0 **** 0.06
10233 H 37.904597382871 16.845428597102597 129.67000373169952 H 0.0 **** 0.06
10234 H 38.43971313961298 18.542216943038227 129.73740066612868 H 0.0 **** 0.06
10235 H 38.84108154623131 17.53769829835366 128.32354580568057 H 0.0 **** 0.06
10236 C 108.21364024053685 134.43071030918296 52.8888909182115 C 0.0 **** -0.24
10237 H 108.37817635313334 133.53450766805074 53.48721337471187 H 0.0 **** 0.06
10238 H 107.15479474868253 134.5104252238837 52.63949987420192 H 0.0 **** 0.06
10239 H 108.79869516936742 134.36693214730067 51.971241664043475 H 0.0 **** 0.06
10240 H 108.52045178500408 135.30871152587696 53.45590461148697 H 0.0 **** 0.06
10241 C 45.545091537085966 66.36382302678618 43.94609853072957 C 0.0 **** -0.24
10242 H 46.19740926983255 66.86102741554504 43.22877406069525 H 0.0 **** 0.06
10243 H 44.85141917734006 65.71166179213043 43.41594815789495 H 0.0 **** 0.06
10244 H 44.984080673371125 67.11222092956683 44.50581136080962 H 0.0 **** 0.06
10245 H 46.14710864585129 65.7718054404169 44.63554950575743 H 0.0 **** 0.06
10246 C 15.710500742273986 136.63119364439677 11.619071400050583 C 0.0 **** -0.24
10247 H 16.670673268117987 136.63032541221077 11.104137441499695 H 0.0 **** 0.06
10248 H 15.19640945916511 137.57319231541385 11.426858650198646 H 0.0 **** 0.06
10249 H 15.873321416243591 136.51657487847052 12.691091952245689 H 0.0 **** 0.06
10250 H 15.102688556640558 135.8030476036853 11.254573738995688 H 0.0 **** 0.06
10251 C 83.02812943789485 123.2552417471685 128.24696458411822 C 0.0 **** -0.24
10252 H 83.74358247513902 124.0763900438053 128.18743675559764 H 0.0 **** 0.06
10253 H 82.91595135309913 122.94622114333629 129.28746039206558 H 0.0 **** 0.06
10254 H 83.3902698946249 122.41436141114036 127.65511356320067 H 0.0 **** 0.06
10255 H 82.06458766130874 123.58448765160955 127.8589640601176 H 0.0 **** 0.06
10256 C 32.74019652094603 27.332835024329356 100.13041207647137 C 0.0 **** -0.24
10257 H 32.55554886140584 26.29487962746481 99.85207606451934 H 0.0 **** 0.06
10258 H 33.55720359065418 27.7295140431891 99.52764324041482 H 0.0 **** 0.06
10259 H 33.00664875211669 27.383527394410635 101.18515207216842 H 0.0 **** 0.06
10260 H 31.839714291083 27.920505992788833 99.95382324261246 H 0.0 **** 0.06
10261 C 52.29019622421815 12.205075503582037 18.575378633615003 C 0.0 **** -0.24
10262 H 51.5264583850726 12.898512531977815 18.224486022897793 H 0.0 **** 0.06
10263 H 52.82683338659453 11.792125537941956 17.7203833063935 H 0.0 **** 0.06
10264 H 51.817121034095294 11.39623073254802 19.132217984415377 H 0.0 **** 0.06
10265 H 52.989713897313734 12.731702594785588 19.223670959652964 H 0.0 **** 0.06
10266 C 24.28213147106341 98.15334084803764 53.23194240113013 C 0.0 **** -0.24
10267 H 24.268746424491894 97.93371282693795 54.299179208327075 H 0.0 **** 0.06
10268 H 25.281332797194167 98.47695563862078 52.94010640593747 H 0.0 **** 0.06
10269 H 23.56483745790792 98.94619608854738 53.01661243857774 H 0.0 **** 0.06
10270 H 24.010908095503446 97.2576563630822 52.67340929513071 H 0.0 **** 0.06
10271 C 105.8167861327623 8.41375578824453 25.692289806581783 C 0.0 **** -0.24
10272 H 105.67122196309897 7.619079229319645 26.42469293870198 H 0.0 **** 0.06
10273 H 106.38654012529753 8.027748860168408 24.84595229411974 H 0.0 **** 0.06
10274 H 106.36240019124365 9.237039125327119 26.153069465719284 H 0.0 **** 0.06
10275 H 104.8470912852288 8.769088940261078 25.3445984408917 H 0.0 **** 0.06
10276 C 59.975112149874434 70.49509946953071 19.634349377259163 C 0.0 **** -0.24
10277 H 59.441227470944625 70.34638883727108 20.572394318472526 H 0.0 **** 0.06
10278 H 60.132793132171656 69.53289495793248 19.14906991218512 H 0.0 **** 0.06
10279 H 60.9388435458261 70.9632167751542 19.835913428526773 H 0.0 **** 0.06
10280 H 59.38751874471484 71.1415051668865 18.981009639806153 H 0.0 **** 0.06
10281 C 94.79276764294679 121.17374658055992 31.086664900638517 C 0.0 **** -0.24
10282 H 95.51691736977415 121.53843102398109 30.358380974547813 H 0.0 **** 0.06
10283 H 94.9040804858071 121.72857098756104 32.01871394918428 H 0.0 **** 0.06
10284 H 94.96427706569546 120.11406787220169 31.271914860395377 H 0.0 **** 0.06
10285 H 93.78406136475027 121.31614730561449 30.69777573734381 H 0.0 **** 0.06
10286 C 59.79857626497778 103.4218360767335 64.8004368641332 C 0.0 **** -0.24
10287 H 58.72194005765817 103.25736594898073 64.7613843566819 H 0.0 **** 0.06
10288 H 60.007569348557666 104.32025785153618 65.38158425437942 H 0.0 **** 0.06
10289 H 60.18398423642401 103.54443481607446 63.78890968004342 H 0.0 **** 0.06
10290 H 60.27911485750565 102.56439172931353 65.27139323784058 H 0.0 **** 0.06
10291 C 20.23051550079937 119.39194772638709 44.15226241325186 C 0.0 **** -0.24
10292 H 19.235069319009853 119.13828261994811 43.78699264773471 H 0.0 **** 0.06
10293 H 20.97210968896414 119.12314040151074 43.39921141912316 H 0.0 **** 0.06
10294 H 20.429998874321456 118.8433360101138 45.07214695881888 H 0.0 **** 0.06
10295 H 20.283529197442505 120.46260942434353 44.34897063703551 H 0.0 **** 0.06
10296 C 39.52795774720664 71.22147562026491 12.01614093823062 C 0.0 **** -0.24
10297 H 40.56860645345319 71.40964140950177 11.751813539952082 H 0.0 **** 0.06
10298 H 38.959317080010834 72.14838983160813 11.93335230798317 H 0.0 **** 0.06
10299 H 39.475513369076104 70.85250878691001 13.040904895361791 H 0.0 **** 0.06
10300 H 39.109822876558255 70.47640050664053 11.339431726018802 H 0.0 **** 0.06
10301 C 36.73279707446061 9.13827249460519 47.87108778248995 C 0.0 **** -0.24
10302 H 37.1826336246244 10.065985543357954 47.51829236046132 H 0.0 **** 0.06
10303 H 35.65269425326472 9.267092827504001 47.9535460629408 H 0.0 **** 0.06
10304 H 37.14476662114259 8.883001143908501 48.847207996908026 H 0.0 **** 0.06
10305 H 36.94987124965025 8.338233965021487 47.1635701503327 H 0.0 **** 0.06
10306 C 27.388081787623662 124.23558904701869 105.22511567645034 C 0.0 **** -0.24
10307 H 27.16918644999471 125.09848938283267 104.59592419766147 H 0.0 **** 0.06
10308 H 27.27756488051159 123.32271517411812 104.64050954334289 H 0.0 **** 0.06
10309 H 26.696390703793327 124.21453944750303 106.0666490224059 H 0.0 **** 0.06
10310 H 28.410312451757335 124.30756202636883 105.59647051821997 H 0.0 **** 0.06
10311 C 30.377860244572787 80.14658221155196 34.24949618574131 C 0.0 **** -0.24
10312 H 30.34594735675978 80.64600645073853 33.28146672753937 H 0.0 **** 0.06
10313 H 30.841850992056607 80.80565407418584 34.98334217243202 H 0.0 **** 0.06
10314 H 30.960632023220114 79.22919019629967 34.1652049226137 H 0.0 **** 0.06
10315 H 29.363128839823162 79.90455201867229 34.566908639524385 H 0.0 **** 0.06
10316 C 58.81230577242218 64.16745894101798 133.54381827679424 C 0.0 **** -0.24
10317 H 58.45863948669347 63.86242665386419 132.55890836862568 H 0.0 **** 0.06
10318 H 59.50187433517797 63.416291669607446 133.93045511211395 H 0.0 **** 0.06
10319 H 57.96322128294281 64.26442504532011 134.22071279305865 H 0.0 **** 0.06
10320 H 59.325583430025915 65.12549763968721 133.46444613904 H 0.0 **** 0.06
10321 C 8.905890992044565 76.78192847686154 110.53975287971264 C 0.0 **** -0.24
10322 H 8.109689840943005 77.36230485892585 110.07303233475645 H 0.0 **** 0.06
10323 H 9.302226351994932 77.33115360396351 111.39426627463047 H 0.0 **** 0.06
10324 H 9.702493607942124 76.61060614417096 109.81604784811918 H 0.0 **** 0.06
10325 H 8.50735265617838 75.82495882029451 110.8758649288688 H 0.0 **** 0.06
10326 C 73.66467576236477 57.860181465797126 37.77494267776166 C 0.0 **** -0.24
10327 H 73.45120929238311 56.80561789578114 37.95433856975956 H 0.0 **** 0.06
10328 H 73.78699325706185 58.02898007237059 36.70502514530236 H 0.0 **** 0.06
10329 H 74.58193839036025 58.13872181371974 38.29521633553662 H 0.0 **** 0.06
10330 H 72.83842605240162 58.46569146373123 38.14693475133956 H 0.0 **** 0.06
10331 C 123.95677792227698 112.19055976580276 3.144788607489147 C 0.0 **** -0.24
10332 H 124.32990570908656 111.83596549126565 4.106026692380851 H 0.0 **** 0.06
10333 H 123.4332159651753 113.13699093481114 3.286348008490222 H 0.0 **** 0.06
10334 H 123.27114888992374 111.45347642774794 2.728185690319492 H 0.0 **** 0.06
10335 H 124.79380939812333 112.33665056785858 2.461651818285759 H 0.0 **** 0.06
10336 C 87.87062986528403 72.15980592882318 24.652284856362854 C 0.0 **** -0.24
10337 H 87.50282569270843 71.71829682541318 23.72634434007979 H 0.0 **** 0.06
10338 H 88.90228165696477 71.84906605190633 24.819235150990608 H 0.0 **** 0.06
10339 H 87.25107106507075 71.82604587472906 25.484376894023967 H 0.0 **** 0.06
10340 H 87.8248325963101 73.24641130730072 24.579790569085446 H 0.0 **** 0.06
10341 C 126.95706573165938 135.22846526732138 101.6314868523694 C 0.0 **** -0.24
10342 H 126.8837986375699 135.30474404042243 102.71656268635394 H 0.0 **** 0.06
10343 H 126.92328909656217 136.2271352205617 101.19465899060103 H 0.0 **** 0.06
10344 H 126.12425071020985 134.63750083872964 101.25191315712112 H 0.0 **** 0.06
10345 H 127.89731879082737 134.74624352198543 101.36446732851022 H 0.0 **** 0.06
10346 C 35.791272829520494 116.28842858471805 39.087829736091095 C 0.0 **** -0.24
10347 H 34.906666163436284 116.62495688514505 39.62808873942012 H 0.0 **** 0.06
10348 H 35.70031597366494 116.56237346108938 38.036977180252606 H 0.0 **** 0.06
10349 H 35.88113082274231 115.20561765199312 39.1753916705872 H 0.0 **** 0.06
10350 H 36.67703881617206 116.7623532739918 39.512435590148726 H 0.0 **** 0.06
10351 C 99.65607625296495 66.11106746855143 22.259545139055774 C 0.0 **** -0.24
10352 H 100.23471761058995 66.94923496612927 21.87064861072801 H 0.0 **** 0.06
10353 H 99.09817255783253 65.64696755818562 21.446189247575376 H 0.0 **** 0.06
10354 H 98.96103042511717 66.4714086402584 23.01809217745914 H 0.0 **** 0.06
10355 H 100.33017867128444 65.37903441375602 22.702690184710747 H 0.0 **** 0.06
10356 C 111.21684317767202 71.50681656503946 100.23335299583178 C 0.0 **** -0.24
10357 H 112.17963088607877 71.34251679885034 100.71803589514815 H 0.0 **** 0.06
10358 H 110.42929832736533 71.53098994667897 100.98728261460872 H 0.0 **** 0.06
10359 H 111.02245758318196 70.69629718292435 99.52997066929106 H 0.0 **** 0.06
10360 H 111.23760415970068 72.45594493884681 99.69784167850216 H 0.0 **** 0.06
10361 C 62.36015302933096 7.316242098230866 109.85000807870873 C 0.0 **** -0.24
10362 H 62.80994942433958 6.337604414276409 110.01765219812887 H 0.0 **** 0.06
10363 H 62.35432008209759 7.536490797373265 108.7823589960373 H 0.0 **** 0.06
10364 H 62.93812149300206 8.076451037269123 110.37581022893241 H 0.0 **** 0.06
10365 H 61.3367181904284 7.314524383509038 110.22586346181922 H 0.0 **** 0.06
10366 C 131.07605827855429 3.575906061993635 16.503443543884373 C 0.0 **** -0.24
10367 H 131.03094674343703 4.578911591580493 16.078836749123525 H 0.0 **** 0.06
10368 H 130.19740871676402 3.0102114215110873 16.190586280659716 H 0.0 **** 0.06
10369 H 131.09675293176298 3.6436022310678595 17.590621987975027 H 0.0 **** 0.06
10370 H 131.97709437124928 3.07292575486872 16.15285144935052 H 0.0 **** 0.06
10371 C 134.0557279567489 128.75081647051954 58.17724671285575 C 0.0 **** -0.24
10372 H 133.43229097863951 127.93443847930962 57.811232480234 H 0.0 **** 0.06
10373 H 134.60167416070038 129.19234426278337 57.34250238572905 H 0.0 **** 0.06
10374 H 134.76183883329983 128.3666186172808 58.9122082227978 H 0.0 **** 0.06
10375 H 133.4243336766123 129.5096033195909 58.640004601812464 H 0.0 **** 0.06
10376 C 9.323899388369654 1.577954286214279 62.467159036015985 C 0.0 **** -0.24
10377 H 9.14906617081958 2.4756962460968985 61.87322230926935 H 0.0 **** 0.06
10378 H 10.11941490586085 1.768941872837047 63.18804453767231 H 0.0 **** 0.06
10379 H 9.616754378968537 0.7594255311032967 61.80889181202092 H 0.0 **** 0.06
10380 H 8.409456704308383 1.3092745905289291 62.99627137966705 H 0.0 **** 0.06
10381 C 13.201800097814253 26.97706496224643 26.931414516424923 C 0.0 **** -0.24
10382 H 13.137343329822514 27.35407583162805 27.952969347559304 H 0.0 **** 0.06
10383 H 12.238678893257276 27.105733148851414 26.436303256082738 H 0.0 **** 0.06
10384 H 13.461802416723796 25.918779853054133 26.950295073897166 H 0.0 **** 0.06
10385 H 13.966797838837707 27.530070207111535 26.388138685594072 H 0.0 **** 0.06
10386 C 130.21254234639932 5.210404401129985 64.05616493581296 C 0.0 **** -0.24
10387 H 130.85241356285874 5.459903392580369 63.20968980551227 H 0.0 **** 0.06
10388 H 129.57673191049972 4.363571237269539 63.79378574005548 H 0.0 **** 0.06
10389 H 129.589527014637 6.069276682895264 64.30641156851132 H 0.0 **** 0.06
10390 H 130.83239969997607 4.948154264487847 64.9139491865769 H 0.0 **** 0.06
10391 C 96.09883183183032 46.4757503442996 135.07325374179555 C 0.0 **** -0.24
10392 H 96.83086874833998 45.70100968524528 135.30260053960978 H 0.0 **** 0.06
10393 H 95.33484419841767 46.49446340258737 135.85092578814266 H 0.0 **** 0.06
10394 H 95.6337594971705 46.26158026715717 134.11066141208238 H 0.0 **** 0.06
10395 H 96.59705851777392 47.44407847510007 135.02858997301462 H 0.0 **** 0.06
10396 C 74.71393992090873 51.2803718835188 3.8360224167620345 C 0.0 **** -0.24
10397 H 74.39408613620961 51.04894117393525 4.851729765511777 H 0.0 **** 0.06
10398 H 74.00176185098002 51.96846785555209 3.379414881743344 H 0.0 **** 0.06
10399 H 74.75847875053059 50.36194563693874 3.2511074130596853 H 0.0 **** 0.06
10400 H 75.70065474294157 51.74222905430071 3.8624582472148745 H 0.0 **** 0.06
10401 C 51.431397470749786 108.56633243207317 27.594367837199137 C 0.0 **** -0.24
10402 H 50.38803088676927 108.66293298534198 27.894753539003204 H 0.0 **** 0.06
10403 H 51.48602073788037 108.05613870490345 26.632264017739224 H 0.0 **** 0.06
10404 H 51.97254539950869 107.98793475926463 28.343577514683524 H 0.0 **** 0.06
10405 H 51.877023885015305 109.55641885980347 27.507581047686912 H 0.0 **** 0.06
10406 C 79.50360250965826 42.36107232728773 6.67548799172809 C 0.0 **** -0.24
10407 H 80.33068860112485 43.070810493430656 6.627796419626861 H 0.0 **** 0.06
10408 H 79.57302759316292 41.78554319485488 7.598331108610637 H 0.0 **** 0.06
10409 H 79.55453641417392 41.68679125983533 5.820809792778988 H 0.0 **** 0.06
10410 H 78.55885473959268 42.90373665661167 6.654942712926385 H 0.0 **** 0.06
10411 C 12.48303529520274 58.793454827749514 86.39596133524483 C 0.0 **** -0.24
10412 H 13.452447673603672 59.27800231736917 86.28216588431836 H 0.0 **** 0.06
10413 H 12.191966214689387 58.334408878194836 85.45019299534948 H 0.0 **** 0.06
10414 H 11.737691632211124 59.53507627749376 86.68366868833199 H 0.0 **** 0.06
10415 H 12.548813456928542 58.02568559356415 87.16751998143907 H 0.0 **** 0.06
10416 C 106.57914423397074 100.66200295052795 65.09576554233777 C 0.0 **** -0.24
10417 H 107.31337105046913 99.8561684700096 65.10808858246298 H 0.0 **** 0.06
10418 H 106.42038567155618 101.02340233950474 66.111388614818 H 0.0 **** 0.06
10419 H 105.63817181984797 100.28975668240702 64.6909104023369 H 0.0 **** 0.06
10420 H 106.94659565262094 101.47766852705172 64.47225433141017 H 0.0 **** 0.06
10421 C 135.6645874411392 22.03467066554954 21.74920586208259 C 0.0 **** -0.24
10422 H 136.32104367409974 21.839443188741228 22.597342950914538 H 0.0 **** 0.06
10423 H 134.92445669898663 21.237841245035014 21.671549880370833 H 0.0 **** 0.06
10424 H 136.25582510189093 22.072326414995473 20.834131468413204 H 0.0 **** 0.06
10425 H 135.15776874569497 22.98859528179331 21.89490313929639 H 0.0 **** 0.06
10426 C 6.775843721083323 1.6214983996325714 77.68961710450809 C 0.0 **** -0.24
10427 H 5.886782897036163 1.8986683669175193 77.1233691797091 H 0.0 **** 0.06
10428 H 6.5039426197068835 0.9086778565797147 78.46721382603255 H 0.0 **** 0.06
10429 H 7.206795521862574 2.5124201168347327 78.14629105480819 H 0.0 **** 0.06
10430 H 7.50604984233755 1.1675316919585725 77.0195303041953 H 0.0 **** 0.06
10431 C 96.9543658479173 124.40684035286402 29.05277998666773 C 0.0 **** -0.24
10432 H 97.01728503628479 124.87280627791907 30.035822693936666 H 0.0 **** 0.06
10433 H 96.90596871270594 125.18052989031233 28.285938203992885 H 0.0 **** 0.06
10434 H 96.05979439793944 123.78688193625432 29.001277507882946 H 0.0 **** 0.06
10435 H 97.83565461282086 123.7861804346857 28.88734874978249 H 0.0 **** 0.06
10436 C 34.31804608414595 30.880944498173136 16.753277441519543 C 0.0 **** -0.24
10437 H 34.12060205829101 30.35165923189615 17.68579985640403 H 0.0 **** 0.06
10438 H 34.19772020118441 30.194977034988398 15.91452932502871 H 0.0 **** 0.06
10439 H 35.337019656642525 31.26747551938962 16.764925544239674 H 0.0 **** 0.06
10440 H 33.61621699507276 31.70880557258522 16.649821861245428 H 0.0 **** 0.06
10441 C 62.10694605023531 76.56587894623597 57.50378040180374 C 0.0 **** -0.24
10442 H 61.73621922010628 76.01732742337738 58.36910742746832 H 0.0 **** 0.06
10443 H 63.01171515568336 76.08621235883365 57.1298674293873 H 0.0 **** 0.06
10444 H 62.33340167485812 77.59177213398021 57.793630471714096 H 0.0 **** 0.06
10445 H 61.34715785110001 76.56890817482504 56.72249827675569 H 0.0 **** 0.06
10446 C 64.06241245907759 73.26151914541418 83.23730046433298 C 0.0 **** -0.24
10447 H 63.29887207121418 72.56087051666515 82.89997922607904 H 0.0 **** 0.06
10448 H 64.43870013256337 73.82689355220336 82.38499335498378 H 0.0 **** 0.06
10449 H 64.88129524027342 72.71203354764478 83.7002319607881 H 0.0 **** 0.06
10450 H 63.62786744985972 73.94777488039117 83.96512243971222 H 0.0 **** 0.06
10451 C 29.545195677310005 35.959559563000056 119.05581293274972 C 0.0 **** -0.24
10452 H 30.587784306382986 35.652478387812536 119.13441404483183 H 0.0 **** 0.06
10453 H 29.309442831521153 36.653887928933116 119.8622400980172 H 0.0 **** 0.06
10454 H 28.902424194064935 35.08307131502691 119.12988166004592 H 0.0 **** 0.06
10455 H 29.38334964099181 36.44997297896806 118.09541007519442 H 0.0 **** 0.06
10456 C 83.88362509363992 102.57377995568976 17.077303711989657 C 0.0 **** -0.24
10457 H 82.94496692155163 102.29068195627254 17.55187756681812 H 0.0 **** 0.06
10458 H 83.71315665318527 103.41879464257224 16.409597346527846 H 0.0 **** 0.06
10459 H 84.27013712399862 101.72984057103824 16.50448619881371 H 0.0 **** 0.06
10460 H 84.6077651958636 102.85509274622818 17.84217252973707 H 0.0 **** 0.06
10461 C 23.50906642916732 99.88710696423384 129.63827122366172 C 0.0 **** -0.24
10462 H 22.50053001571837 100.08096378198046 129.27339057500876 H 0.0 **** 0.06
10463 H 23.752701945435092 98.8339828129241 129.48845985108903 H 0.0 **** 0.06
10464 H 23.56368675231124 100.12574035050059 130.69967440583173 H 0.0 **** 0.06
10465 H 24.218883956522745 100.50532715766758 129.08824944828024 H 0.0 **** 0.06
10466 C 74.95172543262714 68.67396798329361 72.76505866571361 C 0.0 **** -0.24
10467 H 73.92839352352375 68.99891331420042 72.95262569870079 H 0.0 **** 0.06
10468 H 75.5756274893522 68.92464062840426 73.62314987576082 H 0.0 **** 0.06
10469 H 75.33609398466838 69.1754909579115 71.87694235580153 H 0.0 **** 0.06
10470 H 74.96641318432725 67.59469045140037 72.60806052821144 H 0.0 **** 0.06
10471 C 66.31419820920044 94.70266904200224 122.49661325560433 C 0.0 **** -0.24
10472 H 65.35701650451422 94.23804002244555 122.73234848672239 H 0.0 **** 0.06
10473 H 66.81998998198932 94.12154348752014 121.72592018671227 H 0.0 **** 0.06
10474 H 66.93291126428295 94.73274611751458 123.39422711911243 H 0.0 **** 0.06
10475 H 66.14685613307012 95.71713215446283 122.13670046234076 H 0.0 **** 0.06
10476 C 113.04498177649867 122.55651813990772 21.223669247409703 C 0.0 **** -0.24
10477 H 113.21429654118009 122.24738343512522 22.25518527432098 H 0.0 **** 0.06
10478 H 112.61370053860222 123.55793876082379 21.210967371017034 H 0.0 **** 0.06
10479 H 112.35827642035065 121.85866311151383 20.744220407031094 H 0.0 **** 0.06
10480 H 113.9935744197465 122.5608202241545 20.68614475266054 H 0.0 **** 0.06
10481 C 101.68454623056093 90.39720112888887 53.22524711457464 C 0.0 **** -0.24
10482 H 101.27596996504485 89.44163190312798 52.89770945873187 H 0.0 **** 0.06
10483 H 102.61497477151573 90.22782883857661 53.768293957917194 H 0.0 **** 0.06
10484 H 100.96682850795065 90.89325730993983 53.87875580252893 H 0.0 **** 0.06
10485 H 101.87959699442277 91.0256269788016 52.356583090621996 H 0.0 **** 0.06
10486 C 30.927625300224577 135.86907048612431 6.2184790661912785 C 0.0 **** -0.24
10487 H 31.19701472263708 136.39392580949772 5.302923930637416 H 0.0 **** 0.06
10488 H 31.674863810188498 136.07111296487744 6.9863635247637035 H 0.0 **** 0.06
10489 H 30.886724377819263 134.79739733823163 6.0238285130911144 H 0.0 **** 0.06
10490 H 29.951830852743598 136.21379356396625 6.562211966538619 H 0.0 **** 0.06
10491 C 114.91757915684786 27.015138346559354 97.6499745834775 C 0.0 **** -0.24
10492 H 115.83248182892828 26.45748980212909 97.84768704470298 H 0.0 **** 0.06
10493 H 115.02432456171186 28.033325289226013 98.02565381183416 H 0.0 **** 0.06
10494 H 114.07938323478388 26.52898361888782 98.15180858176029 H 0.0 **** 0.06
10495 H 114.73197868810328 27.040332901002216 96.5758475909642 H 0.0 **** 0.06
10496 C 16.23802743443256 100.66907307444791 111.23874281566685 C 0.0 **** -0.24
10497 H 15.747503446880756 100.23979053921039 110.36459647358754 H 0.0 **** 0.06
10498 H 16.821776995285 99.89778699697692 111.74205418934233 H 0.0 **** 0.06
10499 H 15.483885064743937 101.05840417354858 111.92205650848385 H 0.0 **** 0.06
10500 H 16.897296342489078 101.47830907874288 110.92475450798858 H 0.0 **** 0.06
10501 C 63.30573849391925 78.28988270719884 77.9802395005326 C 0.0 **** -0.24
10502 H 63.75756613326115 77.56685592137605 77.30165635884079 H 0.0 **** 0.06
10503 H 62.254509742994756 78.03904909136452 78.13063161731365 H 0.0 **** 0.06
10504 H 63.38394469617869 79.2886536803087 77.55161686763576 H 0.0 **** 0.06
10505 H 63.82628018126417 78.26419232246347 78.9380356475178 H 0.0 **** 0.06
10506 C 15.6803353109419 8.469790224144162 107.00726420534433 C 0.0 **** -0.24
10507 H 15.683847941782005 7.6022623031362 106.34903709670681 H 0.0 **** 0.06
10508 H 15.272559891496257 8.187652507436724 107.97792510196238 H 0.0 **** 0.06
10509 H 15.06438957273511 9.25565936742305 106.56945988313112 H 0.0 **** 0.06
10510 H 16.69970572122628 8.83565968395564 107.13261010278026 H 0.0 **** 0.06
10511 C 8.972394506359642 23.34050381051918 112.15717817559354 C 0.0 **** -0.24
10512 H 9.557792073051655 24.220870720667108 111.89300242440183 H 0.0 **** 0.06
10513 H 8.007711500563772 23.38154464473888 111.65281784404138 H 0.0 **** 0.06
10514 H 8.818747337618415 23.317227934563505 113.23573035863578 H 0.0 **** 0.06
10515 H 9.508031943848522 22.442781875316257 111.84644358929438 H 0.0 **** 0.06
10516 C 7.9880429114327285 132.50654620274358 108.59632411789002 C 0.0 **** -0.24
10517 H 7.208627094361475 132.8070368574961 109.29785993118554 H 0.0 **** 0.06
10518 H 8.780068131507335 133.255342020295 108.59123170729669 H 0.0 **** 0.06
10519 H 7.562548983046554 132.4196567075784 107.59738361963485 H 0.0 **** 0.06
10520 H 8.399037570467044 131.54365398637424 108.90185168300974 H 0.0 **** 0.06
10521 C 100.1291591241768 66.40142006439797 97.54367312267615 C 0.0 **** -0.24
10522 H 100.31976792685435 65.88036136971073 96.60501492053305 H 0.0 **** 0.06
10523 H 100.51568743073892 65.80781184959912 98.37313879135709 H 0.0 **** 0.06
10524 H 99.05562738873346 66.54315375511203 97.66791977587269 H 0.0 **** 0.06
10525 H 100.62473751706494 67.37131881937 97.52826367761543 H 0.0 **** 0.06
10526 C 37.36804008379849 93.08268063153508 15.987827809761995 C 0.0 **** -0.24
10527 H 36.305099873146474 92.89062265166939 15.842308417228878 H 0.0 **** 0.06
10528 H 37.73624025263304 93.71492932328385 15.179682214270997 H 0.0 **** 0.06
10529 H 37.91107273716801 92.13826095442721 15.987713982946616 H 0.0 **** 0.06
10530 H 37.517892161981166 93.58850805597075 16.941661670469955 H 0.0 **** 0.06
10531 C 41.116972050368354 63.78343363023424 87.01139704828674 C 0.0 **** -0.24
10532 H 41.78218151910774 62.9307157759672 86.87863919979404 H 0.0 **** 0.06
10533 H 40.951142853099476 64.2682057029865 86.0488655854902 H 0.0 **** 0.06
10534 H 41.57120784593219 64.49396644363688 87.70212277794006 H 0.0 **** 0.06
10535 H 40.16463279538376 63.44134053588053 87.4148995381535 H 0.0 **** 0.06
10536 C 30.362413671217496 88.8374384942137 36.22379883397001 C 0.0 **** -0.24
10537 H 30.899617864002977 89.59247682823067 35.65002115793422 H 0.0 **** 0.06
10538 H 29.572522560751565 89.31569680190722 36.802691804605644 H 0.0 **** 0.06
10539 H 31.054718564946967 88.33450505083377 36.89938522566651 H 0.0 **** 0.06
10540 H 29.924441959176818 88.10761372097397 35.54308991750861 H 0.0 **** 0.06
10541 C 42.703037465792164 67.92174503294295 2.7658153853266185 C 0.0 **** -0.24
10542 H 43.610562250321564 67.3387415365008 2.918221705646488 H 0.0 **** 0.06
10543 H 41.841325364296175 67.25392866288767 2.7452812415359062 H 0.0 **** 0.06
10544 H 42.769451853947864 68.45759842709158 1.8188357968668356 H 0.0 **** 0.06
10545 H 42.58959286482173 68.63738439203657 3.580667969171259 H 0.0 **** 0.06
10546 C 18.0723518787863 91.93550476875066 66.46666546674652 C 0.0 **** -0.24
10547 H 17.386173064361486 91.26804813754387 65.94629031661478 H 0.0 **** 0.06
10548 H 18.880426394812794 91.35296509282207 66.90996243151073 H 0.0 **** 0.06
10549 H 17.535930429597364 92.46919399520786 67.25098229225236 H 0.0 **** 0.06
10550 H 18.488838261314953 92.65242704066458 65.75854496374859 H 0.0 **** 0.06
10551 C 6.611792092368887 12.451995734845017 41.275375461001914 C 0.0 **** -0.24
10552 H 5.5981862958668955 12.422578725928243 41.67515038491288 H 0.0 **** 0.06
10553 H 6.575282594603095 12.681177343902728 40.210156737385034 H 0.0 **** 0.06
10554 H 7.08912014835613 11.483795499953896 41.42378791283329 H 0.0 **** 0.06
10555 H 7.183520938141783 13.221954988329571 41.79365525710713 H 0.0 **** 0.06
10556 C 121.13752684336117 59.04936239233484 77.60003219388335 C 0.0 **** -0.24
10557 H 121.7887485227468 58.49724574937562 76.92174196078525 H 0.0 **** 0.06
10558 H 121.7428920881211 59.55771662616462 78.3504726997852 H 0.0 **** 0.06
10559 H 120.45447064462104 58.35685146541914 78.09090779999121 H 0.0 **** 0.06
10560 H 120.56546655559487 59.785619921637704 77.03504727403902 H 0.0 **** 0.06
10561 C 48.63549539326874 91.8613668351996 90.49854807597939 C 0.0 **** -0.24
10562 H 47.95238779540675 91.16712451660534 90.98731350719083 H 0.0 **** 0.06
10563 H 48.87780991419446 92.67534038210303 91.18319023643474 H 0.0 **** 0.06
10564 H 48.1633983608114 92.2668734536862 89.60402372888512 H 0.0 **** 0.06
10565 H 49.54953002705362 91.33679835767904 90.22015686939761 H 0.0 **** 0.06
10566 C 132.10577625325365 117.286545496022 32.81939319050974 C 0.0 **** -0.24
10567 H 131.805214425119 116.46097674065246 32.1754624431195 H 0.0 **** 0.06
10568 H 132.28404316641695 116.91471846272103 33.828395979251866 H 0.0 **** 0.06
10569 H 131.3141286425507 118.03615447227591 32.84281442925409 H 0.0 **** 0.06
10570 H 133.02032272042783 117.73704245915283 32.43143908435795 H 0.0 **** 0.06
10571 C 29.904396170087907 85.67682437941797 114.97399875120385 C 0.0 **** -0.24
10572 H 29.732593733295047 85.41721014514529 113.92990661692073 H 0.0 **** 0.06
10573 H 29.03192580526303 86.19879067955432 115.36665469900285 H 0.0 **** 0.06
10574 H 30.778912704078635 86.32380956412126 115.048725612662 H 0.0 **** 0.06
10575 H 30.0741524377149 84.76748712885077 115.5507080762298 H 0.0 **** 0.06
10576 C 28.859098084481957 81.06363905516413 87.60225506238682 C 0.0 **** -0.24
10577 H 29.662837287913817 80.32766127713973 87.63621235770088 H 0.0 **** 0.06
10578 H 29.271660216470593 82.06067350616055 87.75610838812376 H 0.0 **** 0.06
10579 H 28.134314660720634 80.84451870046014 88.38658875365482 H 0.0 **** 0.06
10580 H 28.367131555068852 81.01930397126212 86.63032274917988 H 0.0 **** 0.06
10581 C 8.205190550692123 30.27465715458038 86.48688390492373 C 0.0 **** -0.24
10582 H 9.165896583515035 29.764472044098284 86.42027223998883 H 0.0 **** 0.06
10583 H 7.84854325895725 30.245615161449166 87.51686806553937 H 0.0 **** 0.06
10584 H 7.484406470745853 29.776322439637312 85.83868881068554 H 0.0 **** 0.06
10585 H 8.321887952792167 31.311234149649806 86.17153507249333 H 0.0 **** 0.06
10586 C 34.67791979521919 85.6183568490535 117.77688369318574 C 0.0 **** -0.24
10587 H 35.66774673890863 85.18691847075047 117.62403192586044 H 0.0 **** 0.06
10588 H 34.07760841063242 84.94172757844314 118.38553725588113 H 0.0 **** 0.06
10589 H 34.19374513371152 85.76609432969911 116.81148812545518 H 0.0 **** 0.06
10590 H 34.77482340080272 86.57679262526727 118.2853053103982 H 0.0 **** 0.06
10591 C 7.282522944249365 51.17539802658371 111.76775953047834 C 0.0 **** -0.24
10592 H 6.673918484772969 50.71658059085502 112.54806415852283 H 0.0 **** 0.06
10593 H 7.365196277606174 50.49263775845884 110.92249178062218 H 0.0 **** 0.06
10594 H 8.276126893888033 51.39035502739728 112.16192798984179 H 0.0 **** 0.06
10595 H 6.812715179678207 52.10359842644584 111.44027088978967 H 0.0 **** 0.06
10596 C 112.17638409660421 74.60317589132652 91.43616415755889 C 0.0 **** -0.24
10597 H 111.68145459444798 75.45226390515857 91.90732801990077 H 0.0 **** 0.06
10598 H 111.84941065877774 74.52160802264311 90.3987928692382 H 0.0 **** 0.06
10599 H 111.91701178996519 73.6893992644199 91.97220372132796 H 0.0 **** 0.06
10600 H 113.25584335469802 74.74817062135865 91.46666428469715 H 0.0 **** 0.06
10601 C 58.61361647229296 108.55517594999787 95.53517289090341 C 0.0 **** -0.24
10602 H 57.93194883073488 108.60235205566266 94.68523891810291 H 0.0 **** 0.06
10603 H 59.35514387397521 107.77335912428525 95.36234419438313 H 0.0 **** 0.06
10604 H 58.04965547085823 108.3281410011292 96.4398757050091 H 0.0 **** 0.06
10605 H 59.11723091812706 109.51460703508647 95.65063940276251 H 0.0 **** 0.06
10606 C 97.87178970493397 63.69114420980327 111.29405664028172 C 0.0 **** -0.24
10607 H 97.65185067674395 62.69333930266701 110.91389052908897 H 0.0 **** 0.06
10608 H 97.83863135278821 63.67984267128752 112.38360373507464 H 0.0 **** 0.06
10609 H 97.13085583481471 64.39539304628008 110.91501619083601 H 0.0 **** 0.06
10610 H 98.86495607739742 63.99560508584513 110.96340847773547 H 0.0 **** 0.06
10611 C 37.22900103245587 102.57192548947378 51.45211402182855 C 0.0 **** -0.24
10612 H 37.57489701078569 103.2081802370917 52.26706920707662 H 0.0 **** 0.06
10613 H 38.01296434045284 101.8615415805366 51.189610121311716 H 0.0 **** 0.06
10614 H 36.9901051197148 103.18844365031234 50.58584204463364 H 0.0 **** 0.06
10615 H 36.338353398085644 102.02966715453509 51.76836030980553 H 0.0 **** 0.06
10616 C 43.98766798924892 72.69093602100212 64.07039489752708 C 0.0 **** -0.24
10617 H 44.49888363304288 72.0654405730751 63.338999624605634 H 0.0 **** 0.06
10618 H 44.13390747252369 72.27535749329945 65.06827898114491 H 0.0 **** 0.06
10619 H 42.922507384408675 72.7204731642855 63.842216289359754 H 0.0 **** 0.06
10620 H 44.39539481884475 73.70083678062804 64.03390762896103 H 0.0 **** 0.06
10621 C 80.44218688227474 9.077720556134778 80.40869803799899 C 0.0 **** -0.24
10622 H 79.94118698498951 8.495270063014345 79.634722170945 H 0.0 **** 0.06
10623 H 79.99264476485723 8.855291219143652 81.3770395013567 H 0.0 **** 0.06
10624 H 80.33371888880288 10.139864155567835 80.19167803917628 H 0.0 **** 0.06
10625 H 81.50060526090917 8.816935518184494 80.43023382951202 H 0.0 **** 0.06
10626 C 108.14382371868317 55.81101499831573 55.63385790334004 C 0.0 **** -0.24
10627 H 107.52874022143465 55.3611134710205 56.41417196815729 H 0.0 **** 0.06
10628 H 107.83147407657543 55.43045742706032 54.66095619403794 H 0.0 **** 0.06
10629 H 109.19002705937055 55.55737509542685 55.80432908473891 H 0.0 **** 0.06
10630 H 108.0238807501886 56.894427725582716 55.65636646033525 H 0.0 **** 0.06
10631 C 106.46658093199075 86.4424246298023 86.74887077272929 C 0.0 **** -0.24
10632 H 105.7574655118167 86.8655717235057 87.45990023068794 H 0.0 **** 0.06
10633 H 106.5715572722164 85.37307593090546 86.9332003922244 H 0.0 **** 0.06
10634 H 107.43498876860349 86.92850858705881 86.8679073960237 H 0.0 **** 0.06
10635 H 106.10177319975834 86.60159676270067 85.73357196659295 H 0.0 **** 0.06
10636 C 129.7459018784176 134.34046317239424 124.54624263786565 C 0.0 **** -0.24
10637 H 129.61655059759227 134.2604914689072 125.62582536230468 H 0.0 **** 0.06
10638 H 130.17601507884234 133.41516103341587 124.16380360008469 H 0.0 **** 0.06
10639 H 130.41384256771556 135.1721426999095 124.32188697352535 H 0.0 **** 0.06
10640 H 128.7785009421023 134.51366712847073 124.07648013670138 H 0.0 **** 0.06
10641 C 7.371386319665493 9.37061669866523 16.6336167611791 C 0.0 **** -0.24
10642 H 8.168009467367146 9.202272874765299 15.909083829018954 H 0.0 **** 0.06
10643 H 7.635188756369356 10.211364308947793 17.27530578022862 H 0.0 **** 0.06
10644 H 7.239150596845114 8.47583036502158 17.241179230056844 H 0.0 **** 0.06
10645 H 6.4429155092543695 9.592977092920194 16.107512323131886 H 0.0 **** 0.06
10646 C 106.94910940185036 41.64587020403635 115.29822105605638 C 0.0 **** -0.24
10647 H 107.97738496145428 41.28551759260432 115.32476200256133 H 0.0 **** 0.06
10648 H 106.87623560280599 42.576496418684336 115.859904474431 H 0.0 **** 0.06
10649 H 106.29162295343065 40.89928160783995 115.7433739377135 H 0.0 **** 0.06
10650 H 106.65255126155614 41.82046388677766 114.26440176045651 H 0.0 **** 0.06
10651 C 48.24446949380456 74.01260635933988 62.3772934591496 C 0.0 **** -0.24
10652 H 47.97997955529894 74.24812051462338 61.34663629152402 H 0.0 **** 0.06
10653 H 47.52634941046671 73.29965266014584 62.7824176766548 H 0.0 **** 0.06
10654 H 48.22896396820806 74.92477493904018 62.97316180694824 H 0.0 **** 0.06
10655 H 49.24414386047778 73.57732422938653 62.40445514585883 H 0.0 **** 0.06
10656 C 100.54231945958004 86.96944848154487 55.495273880390414 C 0.0 **** -0.24
10657 H 99.93920493239506 86.16659289558214 55.070239908080396 H 0.0 **** 0.06
10658 H 101.3290752314089 87.2433961176115 54.79218916147238 H 0.0 **** 0.06
10659 H 100.9917905871267 86.63080127478673 56.42924062407411 H 0.0 **** 0.06
10660 H 99.91046703132845 87.83545055899674 55.68939991174591 H 0.0 **** 0.06
10661 C 35.9489384532418 39.31753684632122 85.79918101096466 C 0.0 **** -0.24
10662 H 36.32962090730472 38.350320791203046 86.12572195050618 H 0.0 **** 0.06
10663 H 34.97718337138069 39.18337108719089 85.32276446378368 H 0.0 **** 0.06
10664 H 36.64534220298631 39.75950477757419 85.08612332911515 H 0.0 **** 0.06
10665 H 35.84383973604817 39.97701437465551 86.66114374203278 H 0.0 **** 0.06
10666 C 98.1640406876165 60.93197987706458 27.81029051824231 C 0.0 **** -0.24
10667 H 98.65160618605472 61.503592508814734 28.59961929507334 H 0.0 **** 0.06
10668 H 98.63341449748306 59.95044797036917 27.729963061043122 H 0.0 **** 0.06
10669 H 98.26420457440747 61.46144542180889 26.862736034167654 H 0.0 **** 0.06
10670 H 97.10740217079251 60.81040199312184 28.04965414539768 H 0.0 **** 0.06
10671 C 13.74781276565426 120.47032379700238 3.412327992068356 C 0.0 **** -0.24
10672 H 12.98116146590678 121.17077407136401 3.0794867251271683 H 0.0 **** 0.06
10673 H 13.381750771712916 119.91290926866122 4.273973323781831 H 0.0 **** 0.06
10674 H 14.646733868089939 121.02043806685413 3.6897485797059346 H 0.0 **** 0.06
10675 H 13.9820529409198 119.7782562949954 2.6033414759444327 H 0.0 **** 0.06
10676 C 119.37803389326461 60.03647023628474 7.584596790506623 C 0.0 **** -0.24
10677 H 118.50227313264985 60.57027569518283 7.953658959405459 H 0.0 **** 0.06
10678 H 120.11775521453191 60.7551619855854 7.230353020214125 H 0.0 **** 0.06
10679 H 119.08576066174584 59.38243598082818 6.764312987451319 H 0.0 **** 0.06
10680 H 119.8068437973246 59.440946831025144 8.389727177244339 H 0.0 **** 0.06
10681 C 32.55354659716528 25.788584416044202 7.77475353336035 C 0.0 **** -0.24
10682 H 32.47408817719128 24.752689005588124 7.443217448050742 H 0.0 **** 0.06
10683 H 32.851611629794036 26.416700005521335 6.934876676232836 H 0.0 **** 0.06
10684 H 33.30040613527683 25.861069607573654 8.56580778083547 H 0.0 **** 0.06
10685 H 31.587832933740117 26.123372728017628 8.154286137259962 H 0.0 **** 0.06
10686 C 78.00079910212885 37.25928029167136 10.239756659849377 C 0.0 **** -0.24
10687 H 77.38199773895877 37.4068386380755 9.354135684827952 H 0.0 **** 0.06
10688 H 78.94171345795927 37.79422760904356 10.11882481013214 H 0.0 **** 0.06
10689 H 78.20107641889227 36.19544134895949 10.369494047369699 H 0.0 **** 0.06
10690 H 77.4750867193454 37.638921726288686 11.116252503186786 H 0.0 **** 0.06
10691 C 61.06185365282536 123.73862194637212 118.23084118946409 C 0.0 **** -0.24
10692 H 60.55371205361635 124.11294437305969 119.12035508223713 H 0.0 **** 0.06
10693 H 60.52466662807606 124.06659684254936 117.34113415236732 H 0.0 **** 0.06
10694 H 61.088792459402995 122.64968243413512 118.25951287872189 H 0.0 **** 0.06
10695 H 62.08047336742045 124.12633314898602 118.20455459253117 H 0.0 **** 0.06
10696 C 95.5767258776732 50.69792784256049 60.09420716354481 C 0.0 **** -0.24
10697 H 95.11708653150606 51.62874832877999 60.42805893362316 H 0.0 **** 0.06
10698 H 94.8122601533621 50.04950157610057 59.66678281954387 H 0.0 **** 0.06
10699 H 96.04314177983201 50.198355318620656 60.94361435969208 H 0.0 **** 0.06
10700 H 96.33268365072314 50.91624989596322 59.340758871473696 H 0.0 **** 0.06
10701 C 3.274698004322545 3.539602666265864 86.86031936990236 C 0.0 **** -0.24
10702 H 4.3176657375937 3.609541926855087 87.16667014251374 H 0.0 **** 0.06
10703 H 2.761495350526161 4.471147911582989 87.10145752421255 H 0.0 **** 0.06
10704 H 2.795957978251522 2.714234268383791 87.38734504357262 H 0.0 **** 0.06
10705 H 3.2227203727060214 3.3632197664703654 85.78565826590966 H 0.0 **** 0.06
10706 C 52.90714663568832 124.70894822767048 134.34543415696675 C 0.0 **** -0.24
10707 H 52.49788505586429 123.723166278561 134.12229739642845 H 0.0 **** 0.06
10708 H 52.937703897362155 125.3048599238997 133.4332019655895 H 0.0 **** 0.06
10709 H 53.91655443372804 124.60017442037196 134.7434847415597 H 0.0 **** 0.06
10710 H 52.27682763416942 125.20455168270445 135.08353185746745 H 0.0 **** 0.06
10711 C 74.35161630335213 114.03261978143249 7.263866130698748 C 0.0 **** -0.24
10712 H 73.47250328208202 114.49954663129665 7.7079153077801195 H 0.0 **** 0.06
10713 H 75.25137110390091 114.51625909125997 7.646622535207335 H 0.0 **** 0.06
10714 H 74.31235396999881 114.14401308347229 6.180887367008744 H 0.0 **** 0.06
10715 H 74.3692557351601 112.9746240836779 7.520610943905911 H 0.0 **** 0.06
10716 C 22.778575896851613 74.03862124002052 10.083374596276652 C 0.0 **** -0.24
10717 H 23.21779475832185 73.1588439897015 9.611534675672342 H 0.0 **** 0.06
10718 H 22.618451936521424 74.8114097171462 9.332016282710608 H 0.0 **** 0.06
10719 H 23.454277276218882 74.41218487094602 10.852843845938668 H 0.0 **** 0.06
10720 H 21.8243877854092 73.76835715386034 10.536960847304258 H 0.0 **** 0.06
10721 C 117.54183567438162 120.44164711735891 93.52050213228715 C 0.0 **** -0.24
10722 H 117.75081275827458 119.50693248136656 92.9999512698863 H 0.0 **** 0.06
10723 H 116.63285883002649 120.3329063414728 94.11204976081733 H 0.0 **** 0.06
10724 H 117.40869956302512 121.24106535772576 92.79183945445787 H 0.0 **** 0.06
10725 H 118.37717711798422 120.6853209374259 94.17810754137429 H 0.0 **** 0.06
10726 C 119.52119449539094 26.895620041166723 132.2762643552884 C 0.0 **** -0.24
10727 H 119.11487155305099 27.906067180864284 132.3082996654188 H 0.0 **** 0.06
10728 H 120.03509872065928 26.680142904934485 133.21285449807056 H 0.0 **** 0.06
10729 H 120.22516062743063 26.813612255505348 131.4475161927534 H 0.0 **** 0.06
10730 H 118.70935544942381 26.181864232137514 132.13408805590535 H 0.0 **** 0.06
10731 C 52.40153015111349 65.89588213310657 2.1033549774477898 C 0.0 **** -0.24
10732 H 51.798910019965376 66.76426309361528 1.8387713292607621 H 0.0 **** 0.06
10733 H 53.37046251455641 65.96073294377221 1.6082655800270445 H 0.0 **** 0.06
10734 H 51.88945129369728 64.98829558936902 1.7845275202404984 H 0.0 **** 0.06
10735 H 52.546119000473766 65.87036759150902 3.183999318770688 H 0.0 **** 0.06
10736 C 115.59875966421654 132.33460248584686 37.917786286173055 C 0.0 **** -0.24
10737 H 115.14829374191115 131.36922270575053 37.68946558156847 H 0.0 **** 0.06
10738 H 114.88191567593407 132.9512439465443 38.45990072290806 H 0.0 **** 0.06
10739 H 115.87782062345323 132.83335312779667 36.98940389758769 H 0.0 **** 0.06
10740 H 116.48709666533452 132.1855880171101 38.5313766302034 H 0.0 **** 0.06
10741 C 22.07138844368697 111.20593777086708 125.09047809739299 C 0.0 **** -0.24
10742 H 22.919384677743473 110.6944831417147 125.54655883428732 H 0.0 **** 0.06
10743 H 22.42593001077998 112.08150468427289 124.5461896254097 H 0.0 **** 0.06
10744 H 21.373620727262235 111.51805483340829 125.86761400653205 H 0.0 **** 0.06
10745 H 21.567606160025655 110.52810842260939 124.4003397679355 H 0.0 **** 0.06
10746 C 121.64396508081202 35.32922914413905 122.86327848971621 C 0.0 **** -0.24
10747 H 122.63412106656189 35.359437983261614 123.31761712466584 H 0.0 **** 0.06
10748 H 121.09485974545984 36.233279041659046 123.12802216358497 H 0.0 **** 0.06
10749 H 121.10342541251006 34.45581135563452 123.22976771693243 H 0.0 **** 0.06
10750 H 121.74281889971964 35.267003595225106 121.78009018126176 H 0.0 **** 0.06
10751 C 89.71079412857321 4.353197078669552 57.25042273491934 C 0.0 **** -0.24
10752 H 89.52171205489054 4.3651830836039665 58.32369546512142 H 0.0 **** 0.06
10753 H 90.58268601796209 4.9681865861258245 57.02781434720818 H 0.0 **** 0.06
10754 H 88.84157083581556 4.748922442522513 56.72491976177362 H 0.0 **** 0.06
10755 H 89.89570977467679 3.3288889655025855 56.925677927280915 H 0.0 **** 0.06
10756 C 40.0428509119544 96.06981104786502 117.70068783700941 C 0.0 **** -0.24
10757 H 39.95673774979457 95.3226872936971 118.48960270959051 H 0.0 **** 0.06
10758 H 39.769062032569096 95.62241411001645 116.74529698410527 H 0.0 **** 0.06
10759 H 41.069634625448 96.43012920272923 117.65266683268459 H 0.0 **** 0.06
10760 H 39.374329626888255 96.90409402847641 117.91573739446983 H 0.0 **** 0.06
10761 C 118.62163524725763 91.74016946604861 77.13362770898686 C 0.0 **** -0.24
10762 H 119.33826740080713 91.02508457534643 77.53788632438668 H 0.0 **** 0.06
10763 H 117.63666861543021 91.27629417304746 77.08043455467984 H 0.0 **** 0.06
10764 H 118.93490226627463 92.04414141067497 76.13514843257661 H 0.0 **** 0.06
10765 H 118.5770475217185 92.61590127967118 77.78161445162914 H 0.0 **** 0.06
10766 C 0.7811592492127772 88.5619101912137 94.28368249623117 C 0.0 **** -0.24
10767 H 1.5606931389767738 87.80785686409124 94.39398468059687 H 0.0 **** 0.06
10768 H 1.1360888189339562 89.51185053197827 94.68554875848946 H 0.0 **** 0.06
10769 H -0.10844283218978035 88.24608965649226 94.82882247658154 H 0.0 **** 0.06
10770 H 0.5383615271456108 88.68071186591608 93.22848610881488 H 0.0 **** 0.06
10771 C 64.09011775236021 19.57581351170444 42.60963735298188 C 0.0 **** -0.24
10772 H 65.06041984786685 19.632581663928875 42.116291346571444 H 0.0 **** 0.06
10773 H 64.14389493476406 20.076441185459288 43.576723719338474 H 0.0 **** 0.06
10774 H 63.81894321014585 18.52970242178347 42.7566240235123 H 0.0 **** 0.06
10775 H 63.338038427627055 20.062465272468813 41.989157067540646 H 0.0 **** 0.06
10776 C 67.29419919284102 35.330237509138925 40.688089483115306 C 0.0 **** -0.24
10777 H 67.81393299654152 35.27988622673334 41.645501431453226 H 0.0 **** 0.06
10778 H 67.3182963239242 36.354898774911305 40.315254739413774 H 0.0 **** 0.06
10779 H 66.25816685300484 35.0159295306743 40.82060598013737 H 0.0 **** 0.06
10780 H 67.78497040745864 34.67102206230493 39.973512982053734 H 0.0 **** 0.06
10781 C 47.796160567999266 104.87078429293476 38.4096633368936 C 0.0 **** -0.24
10782 H 47.77184790375199 103.88634660291234 38.87809843246105 H 0.0 **** 0.06
10783 H 48.59172368042344 105.46683742331805 38.85761880014553 H 0.0 **** 0.06
10784 H 46.83822748953142 105.36910711359522 38.56115816504888 H 0.0 **** 0.06
10785 H 47.98319073329779 104.75950896796564 37.3414753410766 H 0.0 **** 0.06
10786 C 25.215743645467995 120.6371911598121 12.059351432969535 C 0.0 **** -0.24
10787 H 25.755469886273517 121.5831132370467 12.090319497597477 H 0.0 **** 0.06
10788 H 24.256485854605415 120.74998648535657 12.564280888883374 H 0.0 **** 0.06
10789 H 25.802716006754963 119.86700682995905 12.56079101666107 H 0.0 **** 0.06
10790 H 25.04889012052719 120.34797121242696 11.021586141115137 H 0.0 **** 0.06
10791 C 70.72930632460682 127.05494382552226 130.10961619963012 C 0.0 **** -0.24
10792 H 69.8272040639958 126.44666885003029 130.16512358860598 H 0.0 **** 0.06
10793 H 70.79002911165742 127.52553324438479 129.12802798171936 H 0.0 **** 0.06
10794 H 71.60343981847885 126.4236282902986 130.26478491059294 H 0.0 **** 0.06
10795 H 70.69558670113724 127.82560116512907 130.87995854632723 H 0.0 **** 0.06
10796 C 117.90531608710418 38.45321041191392 18.02826195251484 C 0.0 **** -0.24
10797 H 118.75224436319755 37.7808494809182 18.165201120686362 H 0.0 **** 0.06
10798 H 117.23012471521915 38.03782914044012 17.27952961365824 H 0.0 **** 0.06
10799 H 118.26431269257944 39.42680670285154 17.696146440253145 H 0.0 **** 0.06
10800 H 117.37503683140221 38.565008346434425 18.97446871446057 H 0.0 **** 0.06
10801 C 104.8875752589554 46.68540011553455 5.974354908828246 C 0.0 **** -0.24
10802 H 105.37988740996519 47.01605982531379 5.059898263312988 H 0.0 **** 0.06
10803 H 104.13230902455504 47.41591283025798 6.265023400490662 H 0.0 **** 0.06
10804 H 105.62592878665441 46.589145967519926 6.771021913056671 H 0.0 **** 0.06
10805 H 104.41136622100896 45.71958595816494 5.802212297735025 H 0.0 **** 0.06
10806 C 83.41171386154416 7.1064550172920065 91.09965454226115 C 0.0 **** -0.24
10807 H 82.41883049463699 7.482644236620388 90.85259712915219 H 0.0 **** 0.06
10808 H 83.84647933580568 7.718789685231343 91.88931983394696 H 0.0 **** 0.06
10809 H 84.0464973582637 7.150227233919367 90.21430150779815 H 0.0 **** 0.06
10810 H 83.33531883179779 6.074250503731179 91.44101460124219 H 0.0 **** 0.06
10811 C 119.00902252749319 21.644948138270678 124.33077602255065 C 0.0 **** -0.24
10812 H 118.02349797729553 21.39632302438116 123.93689789333165 H 0.0 **** 0.06
10813 H 118.89974018820432 22.2624916863395 125.22185871380682 H 0.0 **** 0.06
10814 H 119.5744484993673 22.191590838997826 123.57543084661242 H 0.0 **** 0.06
10815 H 119.54018653562166 20.727857973918788 124.58705033682779 H 0.0 **** 0.06
10816 C 37.307949677456065 132.85549333499327 82.41704133951541 C 0.0 **** -0.24
10817 H 38.33739456346399 132.90744192038966 82.77191264897745 H 0.0 **** 0.06
10818 H 37.289778578578364 132.41531890469398 81.41893090166441 H 0.0 **** 0.06
10819 H 36.886480623193705 133.85972010123444 82.37907458478591 H 0.0 **** 0.06
10820 H 36.719904181105875 132.23877513814497 83.09670097530652 H 0.0 **** 0.06
10821 C 84.77111287906358 42.55391751241598 113.98748981764786 C 0.0 **** -0.24
10822 H 85.77779631532461 42.956567145511826 113.8726602797042 H 0.0 **** 0.06
10823 H 84.32584434228059 42.94588805510722 114.90210345220723 H 0.0 **** 0.06
10824 H 84.81943977392429 41.46603501956105 114.04317009153937 H 0.0 **** 0.06
10825 H 84.16379744647303 42.84743487897924 113.13224452818037 H 0.0 **** 0.06
10826 C 57.53049560940485 22.088150374355898 92.63169111494433 C 0.0 **** -0.24
10827 H 58.33422330855234 22.766946028655184 92.3493823652919 H 0.0 **** 0.06
10828 H 57.16059563623588 21.57275427024956 91.74524995287598 H 0.0 **** 0.06
10829 H 56.719192128682664 22.655988647571874 93.08756218950192 H 0.0 **** 0.06
10830 H 57.90773457235241 21.356436146348706 93.3462183171592 H 0.0 **** 0.06
10831 C 121.46897520883937 113.91298778672979 45.650325452633524 C 0.0 **** -0.24
10832 H 121.1801732139387 113.2878815734029 44.805758308005295 H 0.0 **** 0.06
10833 H 121.69774988212544 113.28206742579638 46.50907902465076 H 0.0 **** 0.06
10834 H 120.6496359022151 114.58605390938462 45.901301788029116 H 0.0 **** 0.06
10835 H 122.3500270184802 114.49791595269042 45.38364985113395 H 0.0 **** 0.06
10836 C 9.468507791094908 132.2414407764636 8.895594558930895 C 0.0 **** -0.24
10837 H 8.695855108555804 131.83108009458095 9.545565322182966 H 0.0 **** 0.06
10838 H 9.001547870912646 132.78683387658273 8.075009464940024 H 0.0 **** 0.06
10839 H 10.073558476063027 131.42855831822956 8.493803756742153 H 0.0 **** 0.06
10840 H 10.102721201340941 132.91795066110714 9.468287126786294 H 0.0 **** 0.06
10841 C 62.86846023611008 72.79526618598004 35.40401198808928 C 0.0 **** -0.24
10842 H 63.61834191099655 73.22396446498885 34.739256155786336 H 0.0 **** 0.06
10843 H 61.87620901416176 72.95178892597255 34.981613861312326 H 0.0 **** 0.06
10844 H 62.92908897200931 73.27799115132245 36.37978545561634 H 0.0 **** 0.06
10845 H 63.05197142271152 71.72600713862573 35.51501582586468 H 0.0 **** 0.06
10846 C 122.98857610580626 104.6141278632339 56.538462313847845 C 0.0 **** -0.24
10847 H 123.5469194892676 105.13142017317853 55.75821722739829 H 0.0 **** 0.06
10848 H 123.37467211330357 103.59996211552289 56.650099502873275 H 0.0 **** 0.06
10849 H 121.93419935564688 104.57387760516697 56.26517374229684 H 0.0 **** 0.06
10850 H 123.09976705697036 105.15143032490502 57.48098857854961 H 0.0 **** 0.06
10851 C 49.853682073214955 61.83016464055487 89.69341680837654 C 0.0 **** -0.24
10852 H 50.120023025041846 60.909407578613525 90.21276352138945 H 0.0 **** 0.06
10853 H 50.66714812826568 62.120089444573125 89.02777600260866 H 0.0 **** 0.06
10854 H 49.680721495969266 62.62099229401238 90.42366563278841 H 0.0 **** 0.06
10855 H 48.94632985130218 61.66894230030917 89.11057514449979 H 0.0 **** 0.06
10856 C 44.155241030693446 46.978592625543996 123.03989757528818 C 0.0 **** -0.24
10857 H 44.78358416832788 46.10959027141746 122.84621524900065 H 0.0 **** 0.06
10858 H 44.76755147012659 47.79032901904944 123.43161428037853 H 0.0 **** 0.06
10859 H 43.38843238160348 46.71683684153646 123.76937443739934 H 0.0 **** 0.06
10860 H 43.679144523689075 47.296776475303034 122.1119082107995 H 0.0 **** 0.06
10861 C 114.40410689736777 55.899531521107235 69.42527097740157 C 0.0 **** -0.24
10862 H 115.35671109661115 56.40855517322501 69.56622893376317 H 0.0 **** 0.06
10863 H 114.23830959406104 55.72841832792983 68.36134070730657 H 0.0 **** 0.06
10864 H 113.59884666158575 56.51771389051879 69.82362713373698 H 0.0 **** 0.06
10865 H 114.42146862230425 54.943078062165625 69.94859158028186 H 0.0 **** 0.06
10866 C 34.34560773070194 89.81352270499457 132.45385656977098 C 0.0 **** -0.24
10867 H 34.31729452109664 90.73146291725311 133.04141781409461 H 0.0 **** 0.06
10868 H 33.392538317052356 89.29319576702068 132.5483850219735 H 0.0 **** 0.06
10869 H 35.147355782260036 89.17281713297001 132.8213419505386 H 0.0 **** 0.06
10870 H 34.5254756302449 90.05832002383147 131.40744994062703 H 0.0 **** 0.06
10871 C 43.521626524617076 60.77575689936289 86.28474541169433 C 0.0 **** -0.24
10872 H 43.723877605589934 61.742756298637076 85.82239294780834 H 0.0 **** 0.06
10873 H 42.45670140269638 60.696127368138264 86.5064947132586 H 0.0 **** 0.06
10874 H 44.09355079352211 60.688970792624744 87.20931824672118 H 0.0 **** 0.06
10875 H 43.812059478771715 59.97928133135976 85.60092792985688 H 0.0 **** 0.06
10876 C 50.040460645166064 134.4315434606038 38.16481166125641 C 0.0 **** -0.24
10877 H 50.227819669434695 135.39153408302582 37.68430917638324 H 0.0 **** 0.06
10878 H 49.03055907513627 134.09663627194453 37.92564621742716 H 0.0 **** 0.06
10879 H 50.14238171189723 134.54029318684493 39.244495710944804 H 0.0 **** 0.06
10880 H 50.761729986494544 133.69845939943565 37.804657078280144 H 0.0 **** 0.06
10881 C 47.36953240110199 63.668159202834204 92.63655417884414 C 0.0 **** -0.24
10882 H 46.883396037846396 62.88286776635806 93.2158829996002 H 0.0 **** 0.06
10883 H 46.91697648003442 63.721232139033475 91.64592937429273 H 0.0 **** 0.06
10884 H 48.43187305139408 63.442629267124374 92.53920075020179 H 0.0 **** 0.06
10885 H 47.24639801094682 64.62426290291774 93.14502805863408 H 0.0 **** 0.06
10886 C 53.966598294444566 56.31697487579996 80.80197064657597 C 0.0 **** -0.24
10887 H 53.464962603805915 55.81018547031624 79.9770232322679 H 0.0 **** 0.06
10888 H 54.85970444325764 55.75833418647147 81.08174920902214 H 0.0 **** 0.06
10889 H 53.290929104665366 56.3740773493422 81.65558035302752 H 0.0 **** 0.06
10890 H 54.24855498505046 57.32330150043089 80.49254504426473 H 0.0 **** 0.06
10891 C 62.9669144280478 70.63356354004316 64.80869140119204 C 0.0 **** -0.24
10892 H 63.08568073844374 69.75303105049045 64.17730153754907 H 0.0 **** 0.06
10893 H 63.85919271153631 71.25526936240945 64.73623183270868 H 0.0 **** 0.06
10894 H 62.82248586689401 70.32313835851735 65.84359654959056 H 0.0 **** 0.06
10895 H 62.0987202307374 71.20385128962718 64.47607472879552 H 0.0 **** 0.06
10896 C 81.45187343156742 47.835280983412076 25.78786248186543 C 0.0 **** -0.24
10897 H 81.98844614682955 48.62741085786598 26.308846152345737 H 0.0 **** 0.06
10898 H 81.51908645300362 46.91218929087012 26.363856589349496 H 0.0 **** 0.06
10899 H 81.89373113753241 47.683740201006856 24.80341482685155 H 0.0 **** 0.06
10900 H 80.40503533424832 48.11800427867013 25.67605636635073 H 0.0 **** 0.06
10901 C 89.3180480669497 94.45961648642373 70.85773962120004 C 0.0 **** -0.24
10902 H 89.87879724644063 93.56048726666286 70.60426768934616 H 0.0 **** 0.06
10903 H 88.63945912797402 94.24449331395746 71.6830251009244 H 0.0 **** 0.06
10904 H 88.7440602946748 94.78648794520564 69.99030825313787 H 0.0 **** 0.06
10905 H 90.01142657538111 95.24867303872031 71.152470282494 H 0.0 **** 0.06
10906 C 9.950577368267204 52.330081078368025 136.45698189203642 C 0.0 **** -0.24
10907 H 9.653465795127175 53.3749879655151 136.3597788086202 H 0.0 **** 0.06
10908 H 9.15599999655592 51.77144945905442 136.95329797335037 H 0.0 **** 0.06
10909 H 10.864723327689774 52.265976562156695 137.04817466292178 H 0.0 **** 0.06
10910 H 10.126900731582197 51.90991452727856 135.46738038187277 H 0.0 **** 0.06
10911 C 20.766115271198572 35.831245831459256 29.840670304799247 C 0.0 **** -0.24
10912 H 19.978078802382925 35.08106472821976 29.915556600385486 H 0.0 **** 0.06
10913 H 20.808920806297664 36.4061753136223 30.766610321483384 H 0.0 **** 0.06
10914 H 20.552026606929985 36.500700601071514 29.007290777386878 H 0.0 **** 0.06
10915 H 21.723153772634987 35.337367638194735 29.674054952853048 H 0.0 **** 0.06
10916 C 85.34244480663477 29.94092935320515 118.85025903283267 C 0.0 **** -0.24
10917 H 84.87182128807328 30.902660061078564 119.05418207290977 H 0.0 **** 0.06
10918 H 86.15987243504156 29.78030215985123 119.5540658926711 H 0.0 **** 0.06
10919 H 85.73266074865364 29.93551409288881 117.83286273712426 H 0.0 **** 0.06
10920 H 84.60560769761634 29.14521839889096 118.96132760882514 H 0.0 **** 0.06
10921 C 111.56847757238367 5.420819951892099 36.396848596805995 C 0.0 **** -0.24
10922 H 110.73682699284441 5.572240834323594 37.08513785396832 H 0.0 **** 0.06
10923 H 111.18112568069293 5.198985216247536 35.40209186477509 H 0.0 **** 0.06
10924 H 112.17976523743931 4.588227244072982 36.74363785696303 H 0.0 **** 0.06
10925 H 112.17624542440791 6.32585398273531 36.35746850363134 H 0.0 **** 0.06
10926 C 0.822789955886094 25.05374129648112 82.1473632617826 C 0.0 **** -0.24
10927 H 0.17685704202949637 25.14634892743203 81.27397240816327 H 0.0 **** 0.06
10928 H 0.9167815602979772 24.002805742538328 82.42031946307708 H 0.0 **** 0.06
10929 H 0.38823004084872537 25.607883784961757 82.98046645553106 H 0.0 **** 0.06
10930 H 1.8079100869644549 25.458960523992488 81.9157066681982 H 0.0 **** 0.06
10931 C 34.63016009314504 30.28206583930543 9.786100688694379 C 0.0 **** -0.24
10932 H 35.224145854600835 30.925543102973876 10.433497700559425 H 0.0 **** 0.06
10933 H 35.018520431966664 29.26409957148823 9.828785857994468 H 0.0 **** 0.06
10934 H 34.683802643581714 30.648246345976645 8.760953691715596 H 0.0 **** 0.06
10935 H 33.59204658878869 30.289613179712802 10.120213708840673 H 0.0 **** 0.06
10936 C 107.1409535952152 108.30940990991027 108.45014536117253 C 0.0 **** -0.24
10937 H 108.05367848390088 107.89425514397026 108.87693551460353 H 0.0 **** 0.06
10938 H 106.33693935825697 108.24813969715228 109.18428102854361 H 0.0 **** 0.06
10939 H 106.86576842418727 107.74173097503363 107.5608451617885 H 0.0 **** 0.06
10940 H 107.30861161541785 109.35142584025331 108.17900956596654 H 0.0 **** 0.06
10941 C 17.168230148824307 17.54697402971152 86.93556880513079 C 0.0 **** -0.24
10942 H 17.45105271376812 17.96170221803976 85.96742829715843 H 0.0 **** 0.06
10943 H 17.073237815059912 16.46354573491098 86.85213783291381 H 0.0 **** 0.06
10944 H 16.215274142364137 17.97317032303755 87.2489752920444 H 0.0 **** 0.06
10945 H 17.934534650459327 17.789647618369628 87.67184117795077 H 0.0 **** 0.06
10946 C 88.31501935344468 21.145003485875463 96.51271567830652 C 0.0 **** -0.24
10947 H 88.29590371989283 21.08723372380311 95.42455103303888 H 0.0 **** 0.06
10948 H 87.30605347212861 21.00260643030998 96.90087161375621 H 0.0 **** 0.06
10949 H 88.68732049573802 22.123278890842357 96.8176454685833 H 0.0 **** 0.06
10950 H 88.97017690109152 20.36800506782555 96.90570177884926 H 0.0 **** 0.06
10951 C 108.88065502483221 67.00830010248613 65.3358164507556 C 0.0 **** -0.24
10952 H 107.96154452247575 67.38131599121365 65.78819584230901 H 0.0 **** 0.06
10953 H 109.56307317519455 66.6787210559407 66.12009971776511 H 0.0 **** 0.06
10954 H 109.34909930651071 67.80484255783928 64.75675325379149 H 0.0 **** 0.06
10955 H 108.64788461557222 66.1707593720837 64.67963702676543 H 0.0 **** 0.06
10956 C 2.4097070876612534 117.79156136471269 95.96542406993171 C 0.0 **** -0.24
10957 H 2.3767745000905904 118.81207424340568 96.34572122628595 H 0.0 **** 0.06
10958 H 3.2207029490620656 117.24841472264035 96.45077601284945 H 0.0 **** 0.06
10959 H 2.576827265498931 117.80933392878134 94.88862184688865 H 0.0 **** 0.06
10960 H 1.4619627687205181 117.29488542148081 96.17685927300371 H 0.0 **** 0.06
10961 C 44.31133672941991 30.52076375284645 9.693358387066041 C 0.0 **** -0.24
10962 H 45.367546655093136 30.730005407238536 9.863615828184606 H 0.0 **** 0.06
10963 H 43.767601029818664 31.459340486041896 9.587409093917586 H 0.0 **** 0.06
10964 H 43.91071276159923 29.96213531113318 10.539576909548742 H 0.0 **** 0.06
10965 H 44.20038629041002 29.930502360317888 8.78385272907147 H 0.0 **** 0.06
10966 C 40.35457840059928 5.171656649133126 61.247756739890576 C 0.0 **** -0.24
10967 H 40.258586366467284 4.5029977799698315 62.10310397949763 H 0.0 **** 0.06
10968 H 41.292686715541095 5.721404839509148 61.32032913313594 H 0.0 **** 0.06
10969 H 39.52095068145667 5.872816886857208 61.23914623740063 H 0.0 **** 0.06
10970 H 40.34681594042013 4.58618470222811 60.32814844030605 H 0.0 **** 0.06
10971 C 96.66227271396762 97.66196247463569 58.43158539809477 C 0.0 **** -0.24
10972 H 96.67082480973927 98.36413878160516 57.59763133420029 H 0.0 **** 0.06
10973 H 97.14016428773947 98.12116385949054 59.29671531601457 H 0.0 **** 0.06
10974 H 97.20481630631883 96.75920255441167 58.15199639487713 H 0.0 **** 0.06
10975 H 95.6317974738584 97.40505377205088 58.67906834192621 H 0.0 **** 0.06
10976 C 71.15249336073404 15.79607761344431 88.64012452129666 C 0.0 **** -0.24
10977 H 70.33383902220797 16.177682803256175 88.03090981199904 H 0.0 **** 0.06
10978 H 70.75716311166705 15.111670307373458 89.39103178366253 H 0.0 **** 0.06
10979 H 71.65506659554995 16.62780768961902 89.13492886253056 H 0.0 **** 0.06
10980 H 71.8636140570257 15.267956869090142 88.00569260970093 H 0.0 **** 0.06
10981 C 135.87451074589876 93.78746182018216 38.33028956203232 C 0.0 **** -0.24
10982 H 136.0457983399583 94.58682487968925 39.05159348142294 H 0.0 **** 0.06
10983 H 136.83332489365574 93.40192224813252 37.982144793618325 H 0.0 **** 0.06
10984 H 135.30986744857705 94.17635967493898 37.48396315623304 H 0.0 **** 0.06
10985 H 135.3112827911874 92.98462296779387 38.8061047713187 H 0.0 **** 0.06
10986 C 30.670820099266052 99.71482116311483 69.64758577095103 C 0.0 **** -0.24
10987 H 31.03106577808552 100.19404853600776 70.55779521345289 H 0.0 **** 0.06
10988 H 30.742582561278113 98.63228696654622 69.75483755001392 H 0.0 **** 0.06
10989 H 31.27803238650003 100.0367882516457 68.80177226988877 H 0.0 **** 0.06
10990 H 29.631562142063103 99.99544303666437 69.47715598270767 H 0.0 **** 0.06
10991 C 90.08079112571795 42.66871761134897 60.984068297823626 C 0.0 **** -0.24
10992 H 89.63324238604321 42.96130911428165 61.93384479491948 H 0.0 **** 0.06
10993 H 90.57699112691057 41.70471546722172 61.097300349870466 H 0.0 **** 0.06
10994 H 90.81023005366194 43.41957868908628 60.68023848022267 H 0.0 **** 0.06
10995 H 89.30307907517397 42.590443233665155 60.224201097536906 H 0.0 **** 0.06
10996 C 39.017412464576694 88.13309574699576 134.6423164204808 C 0.0 **** -0.24
10997 H 38.94271551629876 88.89533940421279 133.86687523921367 H 0.0 **** 0.06
10998 H 39.86414413690477 88.35721858457919 135.2914762724307 H 0.0 **** 0.06
10999 H 39.163060697174814 87.15777842855942 134.17785997902868 H 0.0 **** 0.06
11000 H 38.10039607065207 88.12273961620926 135.23021239620448 H 0.0 **** 0.06
11001 C 127.90531246473363 79.79335527780842 116.82176175546212 C 0.0 **** -0.24
11002 H 127.27655308910633 80.4835144581655 117.38318223708114 H 0.0 **** 0.06
11003 H 128.92392856622695 79.83301498569 117.2096966452223 H 0.0 **** 0.06
11004 H 127.90570505393244 80.07672364000726 115.76948315395612 H 0.0 **** 0.06
11005 H 127.51598771097538 78.78010474330904 116.92506078854888 H 0.0 **** 0.06
11006 C 62.6267527404371 60.606769458818576 89.19609586448598 C 0.0 **** -0.24
11007 H 62.186514302154904 60.159438972360704 90.08785685479643 H 0.0 **** 0.06
11008 H 63.49472112213412 61.202533847157724 89.47994578895026 H 0.0 **** 0.06
11009 H 61.889507794430344 61.24558689600394 88.71031174547176 H 0.0 **** 0.06
11010 H 62.9347061805947 59.81866716250454 88.50940562687589 H 0.0 **** 0.06
11011 C 78.96473036374502 70.09756198902198 130.24628393552575 C 0.0 **** -0.24
11012 H 78.59735085138828 70.16805499364779 129.22155754275417 H 0.0 **** 0.06
11013 H 78.75245351610162 69.10407525594513 130.6406171557947 H 0.0 **** 0.06
11014 H 78.4681348923033 70.84773765316754 130.8612826745118 H 0.0 **** 0.06
11015 H 80.04037565139491 70.27228544881703 130.25807249043254 H 0.0 **** 0.06
11016 C 4.111870710057872 103.2642072933157 102.2738605583531 C 0.0 **** -0.24
11017 H 4.89288023831557 103.52617198706953 101.5594883051429 H 0.0 **** 0.06
11018 H 4.432261542888909 102.40277859937741 102.86117857541525 H 0.0 **** 0.06
11019 H 3.1961886150738223 103.01841927522922 101.73632023377536 H 0.0 **** 0.06
11020 H 3.9293984705446974 104.10915535186605 102.93728401873585 H 0.0 **** 0.06
11021 C 45.34069069161146 82.46656369928877 108.62543941603846 C 0.0 **** -0.24
11022 H 44.6699317561517 83.05570657923184 107.9998427471404 H 0.0 **** 0.06
11023 H 44.804549547936006 81.60325995440587 109.0194081622725 H 0.0 **** 0.06
11024 H 45.69845176529054 83.08140320546005 109.45194985502275 H 0.0 **** 0.06
11025 H 46.189257268323985 82.12879880501885 108.030984475553 H 0.0 **** 0.06
11026 C 66.0891151697835 5.218651610232541 116.6476752293919 C 0.0 **** -0.24
11027 H 65.09270370933146 4.850302489185651 116.40351915310828 H 0.0 **** 0.06
11028 H 66.22783963686106 5.200405763295748 117.7284655207103 H 0.0 **** 0.06
11029 H 66.19866195073278 6.239777930919217 116.28371017801925 H 0.0 **** 0.06
11030 H 66.83643338029887 4.58131812267203 116.17431848284883 H 0.0 **** 0.06
11031 C 104.70498082709275 6.492263096086276 13.471857500472566 C 0.0 **** -0.24
11032 H 105.18364010407686 6.052345035608482 14.346905196312491 H 0.0 **** 0.06
11033 H 105.1326358731468 6.057576968623152 12.567888897241943 H 0.0 **** 0.06
11034 H 104.86869295166696 7.5696962386087705 13.471404517216627 H 0.0 **** 0.06
11035 H 103.63503356786407 6.287335173735755 13.50249168536385 H 0.0 **** 0.06
11036 C 123.90869049633483 54.50294125228348 87.63263612909999 C 0.0 **** -0.24
11037 H 124.43714123106895 55.45400016823068 87.70158423193965 H 0.0 **** 0.06
11038 H 123.89943423410278 54.02109634214615 88.61038654365029 H 0.0 **** 0.06
11039 H 124.41468480263558 53.85738709274456 86.9144817793168 H 0.0 **** 0.06
11040 H 122.88521792809905 54.679489290862776 87.30419940552069 H 0.0 **** 0.06
11041 C 12.202720941980289 89.26942709063081 74.92270577809823 C 0.0 **** -0.24
11042 H 13.132823351462577 89.81187851770929 75.09581000943683 H 0.0 **** 0.06
11043 H 11.484995806089756 89.5214515319467 75.70323852032877 H 0.0 **** 0.06
11044 H 12.39967344192658 88.19663701474991 74.94147587737272 H 0.0 **** 0.06
11045 H 11.796369750513463 89.54685807681685 73.94970842358944 H 0.0 **** 0.06
11046 C 104.18718826235525 72.02853741541026 103.90045718735801 C 0.0 **** -0.24
11047 H 103.64638880752409 72.71272362980153 104.55470122368297 H 0.0 **** 0.06
11048 H 103.86490543268997 72.17856189062292 102.8706924397002 H 0.0 **** 0.06
11049 H 103.9808867001646 71.00077577766842 104.20042514769321 H 0.0 **** 0.06
11050 H 105.25732119823681 72.22088162381448 103.97947162774754 H 0.0 **** 0.06
11051 C 57.61413677938228 73.61295993090238 20.962176542763018 C 0.0 **** -0.24
11052 H 57.54447885219011 73.42867937716369 22.034266798551258 H 0.0 **** 0.06
11053 H 56.75353410414613 73.16736695899203 20.460991840299585 H 0.0 **** 0.06
11054 H 58.53073921036054 73.1661038552528 20.576665570732047 H 0.0 **** 0.06
11055 H 57.62721634175725 74.68613085319816 20.77778279319503 H 0.0 **** 0.06
11056 C 4.786978759632579 99.2431889591264 10.37226664589872 C 0.0 **** -0.24
11057 H 5.036650379845593 100.2788398839262 10.601535651000603 H 0.0 **** 0.06
11058 H 4.04360679186847 98.88121223364257 11.08313025388648 H 0.0 **** 0.06
11059 H 5.684461063963944 98.62906719308052 10.440376796695602 H 0.0 **** 0.06
11060 H 4.382078779989161 99.1830330490458 9.361127970397092 H 0.0 **** 0.06
11061 C 107.219765730289 43.87649341726889 108.72579977507515 C 0.0 **** -0.24
11062 H 108.09912929268336 44.24716080556482 109.25135226301782 H 0.0 **** 0.06
11063 H 107.1719397463587 42.79016515569188 108.81825396323367 H 0.0 **** 0.06
11064 H 107.28385599859763 44.14853780140227 107.67224372430113 H 0.0 **** 0.06
11065 H 106.32337366669191 44.31783987660654 109.16083610454007 H 0.0 **** 0.06
11066 C 121.90519223522847 106.04182501436281 129.9156708029684 C 0.0 **** -0.24
11067 H 121.0759743913687 106.70414388719615 129.66519010115562 H 0.0 **** 0.06
11068 H 122.23206515182747 106.23986945985257 130.93650015135324 H 0.0 **** 0.06
11069 H 122.73188685053651 106.22015215802918 129.22831973914444 H 0.0 **** 0.06
11070 H 121.57990364806281 105.00508367259613 129.83210786145372 H 0.0 **** 0.06
11071 C 21.18712259404299 114.98999227701583 124.50426132406767 C 0.0 **** -0.24
11072 H 21.732903199520536 114.40221976033803 125.24208789205159 H 0.0 **** 0.06
11073 H 21.888687406443182 115.41623493873146 123.78801833978719 H 0.0 **** 0.06
11074 H 20.64808203121737 115.79307828623169 125.00827745683841 H 0.0 **** 0.06
11075 H 20.47789466456328 114.34862323670197 123.9813286832856 H 0.0 **** 0.06
11076 C 102.44805634034763 5.179421390589166 18.891852262164974 C 0.0 **** -0.24
11077 H 103.42756188147676 5.143708068048042 18.415669014424843 H 0.0 **** 0.06
11078 H 101.82089263210496 5.908087109556796 18.377115370412717 H 0.0 **** 0.06
11079 H 102.56243950446152 5.472099427005443 19.935542406508745 H 0.0 **** 0.06
11080 H 101.98193993763395 4.195992371208838 18.83819700602777 H 0.0 **** 0.06
11081 C 103.36626745796929 136.6885247233369 2.7503736014442026 C 0.0 **** -0.24
11082 H 103.29890080637591 136.53287057245188 3.826663775171717 H 0.0 **** 0.06
11083 H 103.29013133485083 137.75407230960684 2.5306925682070585 H 0.0 **** 0.06
11084 H 102.55453806773676 136.15637476738277 2.254428160058019 H 0.0 **** 0.06
11085 H 104.32264513595734 136.31038016617282 2.387831826662378 H 0.0 **** 0.06
11086 C 114.29940573111435 89.84029306168627 80.27035551796232 C 0.0 **** -0.24
11087 H 115.22003111155175 89.80275751141107 80.85390681614709 H 0.0 **** 0.06
11088 H 113.58950451846135 90.50915582692801 80.75643257819375 H 0.0 **** 0.06
11089 H 113.87087211261127 88.84047277320983 80.20395995109116 H 0.0 **** 0.06
11090 H 114.51932301658513 90.2089841572375 79.26784248447544 H 0.0 **** 0.06
11091 C 19.73402797364406 25.656118869379554 109.83728424829692 C 0.0 **** -0.24
11092 H 20.111331048267452 26.668858647568328 109.70047588178019 H 0.0 **** 0.06
11093 H 18.97367148540328 25.65435512209575 110.61831303399444 H 0.0 **** 0.06
11094 H 20.554213050443373 24.998943398542394 110.12577495633445 H 0.0 **** 0.06
11095 H 19.296470943973034 25.30250832950304 108.90368824706303 H 0.0 **** 0.06
11096 C 16.880742415019483 92.41273236440722 16.31728961829777 C 0.0 **** -0.24
11097 H 16.85013923591822 92.79991511072046 15.298288597901099 H 0.0 **** 0.06
11098 H 16.823469924076846 93.24294358546905 17.02227565964637 H 0.0 **** 0.06
11099 H 17.811806637314703 91.86891043483803 16.470955158449037 H 0.0 **** 0.06
11100 H 16.036620218887265 91.74173187564071 16.47692085428833 H 0.0 **** 0.06
11101 C 116.73393204127072 43.58669900611221 52.546477898776914 C 0.0 **** -0.24
11102 H 117.50823969700454 44.286844669650804 52.2329419932875 H 0.0 **** 0.06
11103 H 116.27102024661559 43.94701891795199 53.46538557215622 H 0.0 **** 0.06
11104 H 117.17983385042857 42.60823111378144 52.72260905051172 H 0.0 **** 0.06
11105 H 115.97801894510374 43.507156719981936 51.76520811301279 H 0.0 **** 0.06
11106 C 40.0399342172787 57.085089340420495 46.25287814669713 C 0.0 **** -0.24
11107 H 40.4375203342081 58.077060163302946 46.4684918051168 H 0.0 **** 0.06
11108 H 39.5590337330043 57.09021342594437 45.275203617432624 H 0.0 **** 0.06
11109 H 39.31063407709178 56.81367871369903 47.01593622119822 H 0.0 **** 0.06
11110 H 40.85460412340865 56.360132240117 46.25538056183882 H 0.0 **** 0.06
11111 C 116.18447117008998 63.79610118368737 39.808245737473584 C 0.0 **** -0.24
11112 H 116.67367227203431 64.75237440913543 39.99804811027843 H 0.0 **** 0.06
11113 H 116.15592795839069 63.61003627028384 38.73420186651251 H 0.0 **** 0.06
11114 H 115.16817102910628 63.82401551745903 40.20105468329325 H 0.0 **** 0.06
11115 H 116.74213853641683 62.99934527265748 40.30141936993351 H 0.0 **** 0.06
11116 C 42.72641972331724 43.88846301452418 78.41750722617417 C 0.0 **** -0.24
11117 H 42.08285791056485 44.60088034276184 77.90147350562471 H 0.0 **** 0.06
11118 H 42.3692859631411 43.74999423751662 79.43789290219964 H 0.0 **** 0.06
11119 H 43.74689474891237 44.26969207623374 78.43741049433487 H 0.0 **** 0.06
11120 H 42.704645590681814 42.93414065438541 77.8921161889318 H 0.0 **** 0.06
11121 C 132.31407324649533 102.91787062378677 29.62799526948477 C 0.0 **** -0.24
11122 H 131.36628132606364 103.14788866444164 30.115299348369177 H 0.0 **** 0.06
11123 H 132.8460045334481 102.162330062134 30.205240084621302 H 0.0 **** 0.06
11124 H 132.91948837572704 103.82238467165055 29.567118893240377 H 0.0 **** 0.06
11125 H 132.12195309223782 102.54039219251649 28.623260489207013 H 0.0 **** 0.06
11126 C 61.658710800011875 26.019822378854656 8.862277271871505 C 0.0 **** -0.24
11127 H 62.44597402291984 25.532335875152228 9.43673228057068 H 0.0 **** 0.06
11128 H 61.09825637133224 25.269380259181702 8.304552850005138 H 0.0 **** 0.06
11129 H 62.10372079522713 26.733012634331374 8.167601895457437 H 0.0 **** 0.06
11130 H 60.98637228102481 26.5458724699659 9.540318788429573 H 0.0 **** 0.06
11131 C 52.53524406788176 18.608535364111447 45.795513918153404 C 0.0 **** -0.24
11132 H 52.702038618811685 17.92776080704823 44.96017106218176 H 0.0 **** 0.06
11133 H 51.68713997093295 19.25607884545559 45.57052726569731 H 0.0 **** 0.06
11134 H 53.426109760805105 19.21660611158495 45.95097555313393 H 0.0 **** 0.06
11135 H 52.324763161079204 18.033502935849583 46.69624554955064 H 0.0 **** 0.06
11136 C 0.3832717689994247 30.03755231584705 77.78864426938364 C 0.0 **** -0.24
11137 H 0.4955242145824812 29.9738250374713 78.87088928584828 H 0.0 **** 0.06
11138 H 0.2742237265739611 29.0349559057191 77.37446429712257 H 0.0 **** 0.06
11139 H 1.2658682917786273 30.513317675311896 77.36034321457711 H 0.0 **** 0.06
11140 H -0.5006608490767306 30.628774316795074 77.54914324523247 H 0.0 **** 0.06
11141 C 55.513414261976436 83.54593137323859 111.0644355936773 C 0.0 **** -0.24
11142 H 56.57965737380766 83.65743747186553 110.86846605472431 H 0.0 **** 0.06
11143 H 55.185216715259514 82.56002480217889 110.73438606546912 H 0.0 **** 0.06
11144 H 54.962658363050934 84.31421206567903 110.5220024031093 H 0.0 **** 0.06
11145 H 55.32744193687583 83.65250571651329 112.13312884387915 H 0.0 **** 0.06
11146 C 108.53297542991157 27.709268897998356 104.5142391055156 C 0.0 **** -0.24
11147 H 108.43457542870732 26.748834701892093 105.01951390687552 H 0.0 **** 0.06
11148 H 109.44764756429922 28.201721203348683 104.84616037805222 H 0.0 **** 0.06
11149 H 107.67426995781119 28.336571586248994 104.75556121082333 H 0.0 **** 0.06
11150 H 108.57597496579814 27.55027216755036 103.43647884971601 H 0.0 **** 0.06
11151 C 68.693887193497 5.566312585566919 112.1401197463062 C 0.0 **** -0.24
11152 H 69.47930458099776 5.593023434449972 112.89581687228454 H 0.0 **** 0.06
11153 H 67.72186329606359 5.4989101221822985 112.629276712815 H 0.0 **** 0.06
11154 H 68.83857097369429 4.6992419550363955 111.49591545366431 H 0.0 **** 0.06
11155 H 68.73625161615564 6.476431228889748 111.54097083460718 H 0.0 **** 0.06
11156 C 120.54238808566353 57.71147544214081 93.47190817177477 C 0.0 **** -0.24
11157 H 120.87507234295319 56.77558345700527 93.02069698562332 H 0.0 **** 0.06
11158 H 121.03846528213936 57.84543625386968 94.43372053659218 H 0.0 **** 0.06
11159 H 119.46392971415526 57.67928562838911 93.62078172157874 H 0.0 **** 0.06
11160 H 120.79531468320272 58.5417583041003 92.81334950464554 H 0.0 **** 0.06
11161 C 42.786827080223304 31.800590242880958 52.22808997195092 C 0.0 **** -0.24
11162 H 42.23231444625554 31.848435418749027 51.291489422946825 H 0.0 **** 0.06
11163 H 42.88628310665598 30.760225690172334 52.538390114101105 H 0.0 **** 0.06
11164 H 42.25152606703904 32.35895466775381 52.996352997696945 H 0.0 **** 0.06
11165 H 43.77643986728373 32.23414194539211 52.0864125885047 H 0.0 **** 0.06
11166 C 92.6544393825603 0.23255734722130228 20.021268223870493 C 0.0 **** -0.24
11167 H 91.87597905903226 -0.5273370317801209 19.962098421803006 H 0.0 **** 0.06
11168 H 92.50885448334816 0.9638435061959854 19.22576355066832 H 0.0 **** 0.06
11169 H 93.63087793028666 -0.23814694787961344 19.907768089553002 H 0.0 **** 0.06
11170 H 92.60170618811088 0.732480359722615 20.988727411867472 H 0.0 **** 0.06
11171 C 10.583860393938199 41.746977578288835 98.50447858507748 C 0.0 **** -0.24
11172 H 10.7216843392155 41.27781259877176 99.47843742693249 H 0.0 **** 0.06
11173 H 11.020636883107468 41.11289041539152 97.73148897679337 H 0.0 **** 0.06
11174 H 11.075998477922575 42.7197370705273 98.49783350711182 H 0.0 **** 0.06
11175 H 9.519368059973498 41.87650448776476 98.31030368871787 H 0.0 **** 0.06
11176 C 19.843237018358053 84.92214324858861 66.80052649578613 C 0.0 **** -0.24
11177 H 19.21057206325304 84.7927720958129 67.67848219376646 H 0.0 **** 0.06
11178 H 19.457545547602876 85.74021539208508 66.1921474031817 H 0.0 **** 0.06
11179 H 19.843346068649197 84.0025321140024 66.21526978622254 H 0.0 **** 0.06
11180 H 20.860610968128697 85.1512343085526 67.11759524651427 H 0.0 **** 0.06
11181 C 121.91284629201743 122.5649163138949 122.32047212094773 C 0.0 **** -0.24
11182 H 122.6539141869759 123.24655597321612 121.90348076262245 H 0.0 **** 0.06
11183 H 121.04337505728478 122.52780922704082 121.66259143763457 H 0.0 **** 0.06
11184 H 121.60927250175149 122.91745995804473 123.30528931797774 H 0.0 **** 0.06
11185 H 122.34497263954756 121.56752527696604 122.40810232117163 H 0.0 **** 0.06
11186 C 82.40886083458861 58.91860987866551 95.71813124218278 C 0.0 **** -0.24
11187 H 83.06399837084797 58.5218713122519 96.49415405983653 H 0.0 **** 0.06
11188 H 83.00228560659306 59.473487142051056 94.99101477699354 H 0.0 **** 0.06
11189 H 81.67156370424661 59.58172414228335 96.16882115797435 H 0.0 **** 0.06
11190 H 81.89942667170311 58.09410026505549 95.21832944073041 H 0.0 **** 0.06
11191 C 70.4371232821552 81.46864538572905 22.401672958373695 C 0.0 **** -0.24
11192 H 69.48795286674529 82.00391159723155 22.369693533445712 H 0.0 **** 0.06
11193 H 70.31383939695398 80.48429949871182 21.95002783110965 H 0.0 **** 0.06
11194 H 70.75578168929243 81.35677151528505 23.437742015198893 H 0.0 **** 0.06
11195 H 71.19006646259955 82.03155572733306 21.848562073200995 H 0.0 **** 0.06
11196 C 12.255379848730115 37.12316859472355 131.17163225340386 C 0.0 **** -0.24
11197 H 11.805317189344294 37.24499803853021 130.18633318397116 H 0.0 **** 0.06
11198 H 12.278223369844 38.085767671157924 131.68303158731817 H 0.0 **** 0.06
11199 H 13.271835031700107 36.74501352397783 131.06249626072562 H 0.0 **** 0.06
11200 H 11.665543760158641 36.414989717472935 131.75476533562107 H 0.0 **** 0.06
11201 C 46.4164110477962 129.71857998230223 82.24168370930454 C 0.0 **** -0.24
11202 H 45.77674269326015 128.83742313761636 82.21201894016306 H 0.0 **** 0.06
11203 H 47.15420313559038 129.60691364684263 83.03645508744282 H 0.0 **** 0.06
11204 H 45.80758887587422 130.60342076014427 82.43228409669933 H 0.0 **** 0.06
11205 H 46.92599036749685 129.8288314876172 81.28471215170833 H 0.0 **** 0.06
11206 C 91.17934281602686 129.28241364079068 73.78101557762452 C 0.0 **** -0.24
11207 H 92.15996439726246 129.20025478423932 73.31226052597796 H 0.0 **** 0.06
11208 H 90.69734906412879 130.20526938661806 73.45735002968144 H 0.0 **** 0.06
11209 H 91.29517224478718 129.29386851232294 74.86462638198748 H 0.0 **** 0.06
11210 H 90.56470129888501 128.4300656364439 73.49078848417616 H 0.0 **** 0.06
11211 C 130.6701140076458 16.199397107612754 96.541587350746 C 0.0 **** -0.24
11212 H 131.51736391442455 16.808055271626074 96.85730065526305 H 0.0 **** 0.06
11213 H 130.15335864996104 15.812438980072614 97.4207007903516 H 0.0 **** 0.06
11214 H 131.02719387974787 15.367332892162096 95.93458555770303 H 0.0 **** 0.06
11215 H 129.9835034809563 16.80971574137152 95.95520079184269 H 0.0 **** 0.06
11216 C 116.47279311598899 130.42526057009044 85.79327555474504 C 0.0 **** -0.24
11217 H 117.3902073440891 131.00192502915263 85.90610393251535 H 0.0 **** 0.06
11218 H 116.46761041940505 129.93875980818416 84.81791859093056 H 0.0 **** 0.06
11219 H 115.61303170944512 131.09113044019958 85.87244458867588 H 0.0 **** 0.06
11220 H 116.42032299101686 129.66922700282552 86.5766351068583 H 0.0 **** 0.06
11221 C 77.52170941154239 36.70213315425007 103.21512223338709 C 0.0 **** -0.24
11222 H 78.12690478721868 37.58176501376474 103.43496404477398 H 0.0 **** 0.06
11223 H 77.31183450790292 36.66492122715055 102.14595719481119 H 0.0 **** 0.06
11224 H 76.58383323588498 36.76014473251429 103.76863018771172 H 0.0 **** 0.06
11225 H 78.06422142384463 35.80501735847039 103.51100559137785 H 0.0 **** 0.06
11226 C 55.68425507390269 99.96428447571914 101.59120838001338 C 0.0 **** -0.24
11227 H 55.64513921958242 100.37027294800197 102.60215515634064 H 0.0 **** 0.06
11228 H 55.14206405032142 100.62467512604853 100.91425922675892 H 0.0 **** 0.06
11229 H 55.22641773141103 98.97541601641052 101.57895367579167 H 0.0 **** 0.06
11230 H 56.72329063112096 99.88884548857413 101.27030007600769 H 0.0 **** 0.06
11231 C 48.880649275119254 64.7858118262553 51.250010412132525 C 0.0 **** -0.24
11232 H 47.90379424740121 64.34154306016504 51.44077093180492 H 0.0 **** 0.06
11233 H 49.60711150409952 63.99629545429352 51.05818606588991 H 0.0 **** 0.06
11234 H 49.19149261398354 65.36408191294832 52.120211075824955 H 0.0 **** 0.06
11235 H 48.816727588166316 65.44168730880267 50.3822233445901 H 0.0 **** 0.06
11236 C 65.22345041751429 122.66227424117409 111.28145103710219 C 0.0 **** -0.24
11237 H 65.63445162672679 122.963135363427 110.31718411027083 H 0.0 **** 0.06
11238 H 65.99248268385381 122.75592261973554 112.04914790628561 H 0.0 **** 0.06
11239 H 64.88963073363097 121.62601146958582 111.22640598137949 H 0.0 **** 0.06
11240 H 64.37918813773727 123.30361565466717 111.53205510811526 H 0.0 **** 0.06
11241 C 5.7204136610332625 122.33254984047713 105.05823051517908 C 0.0 **** -0.24
11242 H 4.970135838003358 121.5587286506146 105.21845218376092 H 0.0 **** 0.06
11243 H 6.237038972424585 122.5382196363343 105.99655421008248 H 0.0 **** 0.06
11244 H 5.233507480651866 123.24214696022997 104.70453491165318 H 0.0 **** 0.06
11245 H 6.439747310211516 121.99288563369029 104.31395144950022 H 0.0 **** 0.06
11246 C 101.92836885535161 126.49196397131996 38.84056454463865 C 0.0 **** -0.24
11247 H 101.38069033256164 125.66544369211265 39.29278296729481 H 0.0 **** 0.06
11248 H 102.99110306670917 126.38517229598801 39.05812510570023 H 0.0 **** 0.06
11249 H 101.56575514489859 127.43564778390076 39.249246896332664 H 0.0 **** 0.06
11250 H 101.77473183975991 126.4818156547853 37.76138070848961 H 0.0 **** 0.06
11251 C 88.76736344064062 93.6472529693902 55.208996977700295 C 0.0 **** -0.24
11252 H 88.39100510563262 92.95139318022854 54.4574480841698 H 0.0 **** 0.06
11253 H 89.27337376815584 94.47629686881152 54.71349333557974 H 0.0 **** 0.06
11254 H 89.46898694136792 93.1296426967669 55.86340903971349 H 0.0 **** 0.06
11255 H 87.93461249525163 94.0297093778405 55.79881898379139 H 0.0 **** 0.06
11256 C 17.4560991408309 94.851376467616 109.40022002927884 C 0.0 **** -0.24
11257 H 17.66143964707166 94.93926100356566 108.33338703254742 H 0.0 **** 0.06
11258 H 17.83449292997338 95.73365696545821 109.91586651382548 H 0.0 **** 0.06
11259 H 17.947952201015994 93.96127114456976 109.79228907255936 H 0.0 **** 0.06
11260 H 16.379913672124047 94.77172443935899 109.55747303014942 H 0.0 **** 0.06
11261 C 53.33945767239963 116.29496984040705 132.3460780286576 C 0.0 **** -0.24
11262 H 54.11418732321921 116.58460975435986 133.05717283720017 H 0.0 **** 0.06
11263 H 52.9141825304099 117.18830090243102 131.8887108586224 H 0.0 **** 0.06
11264 H 52.556577388149464 115.74492363261288 132.86733002895264 H 0.0 **** 0.06
11265 H 53.775608756968964 115.66145391459875 131.57359315869328 H 0.0 **** 0.06
11266 C 61.29191729846133 122.28341550519102 86.37839087713148 C 0.0 **** -0.24
11267 H 60.498346527294416 122.80958762558774 85.84730009489444 H 0.0 **** 0.06
11268 H 60.958938194008056 122.05316675791886 87.39126726212444 H 0.0 **** 0.06
11269 H 62.17946318567806 122.91380830031699 86.42175253414223 H 0.0 **** 0.06
11270 H 61.52886842578897 121.35832728693626 85.85377104346306 H 0.0 **** 0.06
11271 C 126.94836553740724 51.28534587052475 123.6067079838128 C 0.0 **** -0.24
11272 H 126.96631318447892 52.282244687356766 124.04770879604035 H 0.0 **** 0.06
11273 H 127.16451246445173 51.35617284367147 122.54046733041977 H 0.0 **** 0.06
11274 H 125.96188420379079 50.8437810118442 123.74883513171812 H 0.0 **** 0.06
11275 H 127.69971854244196 50.66140111739861 124.08967860633265 H 0.0 **** 0.06
11276 C 28.126426015105835 16.578790384397166 101.3198271419111 C 0.0 **** -0.24
11277 H 27.48863175782077 16.262155735984038 102.1444852530031 H 0.0 **** 0.06
11278 H 27.50600754375199 16.874785558967062 100.47376458480045 H 0.0 **** 0.06
11279 H 28.773766621237883 15.752469666376669 101.02350072578673 H 0.0 **** 0.06
11280 H 28.737319904705316 17.42378524374209 101.63649159605691 H 0.0 **** 0.06
11281 C 11.075443247153437 90.65181288971246 62.981338856805664 C 0.0 **** -0.24
11282 H 10.70776291797701 91.58961991334208 62.56566086364491 H 0.0 **** 0.06
11283 H 10.282484514554586 90.17310198007775 63.555165777206966 H 0.0 **** 0.06
11284 H 11.926028378422117 90.8524234529707 63.63264323308326 H 0.0 **** 0.06
11285 H 11.386905984585628 89.99244406281868 62.170506674914435 H 0.0 **** 0.06
11286 C 90.49252772510893 34.425438926813854 93.40496511590352 C 0.0 **** -0.24
11287 H 89.71467617131364 35.01963684072001 93.88468051914174 H 0.0 **** 0.06
11288 H 90.16957480707903 33.386352059918266 93.34216423781346 H 0.0 **** 0.06
11289 H 91.40886233079229 34.48728733607891 93.99147913816057 H 0.0 **** 0.06
11290 H 90.67672166845597 34.81091335085196 92.40155583787923 H 0.0 **** 0.06
11291 C 19.93550864034711 22.58496479914519 118.52662904048987 C 0.0 **** -0.24
11292 H 19.87710788475698 22.23335649765435 117.49684994415009 H 0.0 **** 0.06
11293 H 20.22417692355782 23.635794801292427 118.5356827673391 H 0.0 **** 0.06
11294 H 20.676699675607495 21.998213847557075 119.06902762051152 H 0.0 **** 0.06
11295 H 18.961781784553068 22.471084807851106 119.0040234918327 H 0.0 **** 0.06
11296 C 129.9826058379109 133.28888075530352 83.26375146794972 C 0.0 **** -0.24
11297 H 128.9001438105987 133.4157450769806 83.2819302281255 H 0.0 **** 0.06
11298 H 130.4225449094738 134.01887555788903 82.58486544855448 H 0.0 **** 0.06
11299 H 130.2250590167701 132.2827657011249 82.92264447103564 H 0.0 **** 0.06
11300 H 130.38172733054228 133.43842025517716 84.26730369140999 H 0.0 **** 0.06
11301 C 54.41432292215168 1.3006314768426037 79.31579751415785 C 0.0 **** -0.24
11302 H 53.36400432278322 1.4104163798510818 79.04438046753256 H 0.0 **** 0.06
11303 H 55.00124570879268 2.067534343049836 78.8110493936939 H 0.0 **** 0.06
11304 H 54.76609391561183 0.31417278597027476 79.01259046851902 H 0.0 **** 0.06
11305 H 54.523019836204355 1.4097796627892762 80.39496975587318 H 0.0 **** 0.06
11306 C 35.272022700014986 88.72475509303867 73.33623854974854 C 0.0 **** -0.24
11307 H 35.026284183385854 89.15075594876366 74.30968191068501 H 0.0 **** 0.06
11308 H 36.17397253653775 88.11782263702025 73.42316731329936 H 0.0 **** 0.06
11309 H 35.44114111793533 89.52888965807021 72.62090116776363 H 0.0 **** 0.06
11310 H 34.446245234017795 88.10083404283732 72.99456304062568 H 0.0 **** 0.06
11311 C 93.32295144792262 134.23341143577935 33.78606952077001 C 0.0 **** -0.24
11312 H 92.89123401503683 135.1737316440644 34.128483032787926 H 0.0 **** 0.06
11313 H 93.5876679294046 134.31883168775133 32.732165527975326 H 0.0 **** 0.06
11314 H 92.59678704928437 133.43134356248916 33.91578237494731 H 0.0 **** 0.06
11315 H 94.21770603358031 134.012208319052 34.36846071400376 H 0.0 **** 0.06
11316 C 79.73658449829134 21.343542400678984 59.238884697045165 C 0.0 **** -0.24
11317 H 78.88904051689914 20.832500865059167 59.69673386160588 H 0.0 **** 0.06
11318 H 79.39435193436239 21.91001644322303 58.37331202371274 H 0.0 **** 0.06
11319 H 80.47676424894487 20.607398907913534 58.92263347609429 H 0.0 **** 0.06
11320 H 80.18609501008387 22.022089490104463 59.96400414754035 H 0.0 **** 0.06
11321 C 20.394032808677764 50.70760878559548 134.32722563892992 C 0.0 **** -0.24
11322 H 19.76463994757154 51.24748396698152 133.6202628081744 H 0.0 **** 0.06
11323 H 20.98576492366476 51.41974048377085 134.90371647210327 H 0.0 **** 0.06
11324 H 21.061157296911517 50.03852209078866 133.78294904192626 H 0.0 **** 0.06
11325 H 19.76682387689118 50.12561471530796 135.00221593676014 H 0.0 **** 0.06
11326 C 10.979568765212036 45.64631776037743 18.867336963664286 C 0.0 **** -0.24
11327 H 10.43282011091057 45.02023446403854 19.57206432338961 H 0.0 **** 0.06
11328 H 12.022773324469938 45.33166728845771 18.834528402057458 H 0.0 **** 0.06
11329 H 10.923689777879986 46.6867573388285 19.1887574412456 H 0.0 **** 0.06
11330 H 10.53776201952067 45.547929936634375 17.87565621524027 H 0.0 **** 0.06
11331 C 82.06555321074465 125.32008433749904 2.206354393910516 C 0.0 **** -0.24
11332 H 81.99085029469636 125.68133283693143 3.2319059750318218 H 0.0 **** 0.06
11333 H 83.07656074274735 125.4878573194695 1.8343166456712936 H 0.0 **** 0.06
11334 H 81.35378455183971 125.8568392096836 1.5803611231411594 H 0.0 **** 0.06
11335 H 81.8405179412481 124.2536682649284 2.17999208021493 H 0.0 **** 0.06
11336 C 83.85427278244498 44.20196773792094 70.08073636260804 C 0.0 **** -0.24
11337 H 84.19064802515243 45.2052363761656 69.82257998398612 H 0.0 **** 0.06
11338 H 83.99323380332424 44.036493003642704 71.14928539131887 H 0.0 **** 0.06
11339 H 84.43527612251336 43.46846298871509 69.52123123440327 H 0.0 **** 0.06
11340 H 82.79826322259993 44.096985151582075 69.83048936400678 H 0.0 **** 0.06
11341 C 123.79645954701175 71.58388721637436 3.5624900687113836 C 0.0 **** -0.24
11342 H 124.24950229197236 70.7297270469756 4.066438251046691 H 0.0 **** 0.06
11343 H 122.84148218102825 71.81883060364856 4.0327973187524435 H 0.0 **** 0.06
11344 H 123.63568462950872 71.34071850738025 2.51223845012521 H 0.0 **** 0.06
11345 H 124.46160739249962 72.44410475024932 3.6378903267691953 H 0.0 **** 0.06
11346 C 85.60897483728027 70.30167670207982 121.74813084385576 C 0.0 **** -0.24
11347 H 85.66204384387026 71.04780312812358 122.54174797857752 H 0.0 **** 0.06
11348 H 86.58321635616312 69.82415270106907 121.6344979031267 H 0.0 **** 0.06
11349 H 85.3290631770443 70.78522675102056 120.81283954128943 H 0.0 **** 0.06
11350 H 84.86342569485143 69.54998546349691 122.00649840827006 H 0.0 **** 0.06
11351 C 129.92202384896285 115.69524243419107 119.44587310118479 C 0.0 **** -0.24
11352 H 130.7563150458873 116.16239048220771 118.92252716923494 H 0.0 **** 0.06
11353 H 129.06170544737154 116.36350986337243 119.42824064274947 H 0.0 **** 0.06
11354 H 130.20782874296108 115.49691797593752 120.47859329903804 H 0.0 **** 0.06
11355 H 129.66471592822526 114.75724218215808 118.95309499788308 H 0.0 **** 0.06
11356 C 10.401643856181128 13.704757964380804 9.409318083106712 C 0.0 **** -0.24
11357 H 9.900670084397401 14.238332367881242 10.217899409635379 H 0.0 **** 0.06
11358 H 10.100210356709763 12.656821547660766 9.424817373793246 H 0.0 **** 0.06
11359 H 11.48134551422558 13.77491787334857 9.542419518690622 H 0.0 **** 0.06
11360 H 10.123540109643681 14.15025188039911 8.454053434082425 H 0.0 **** 0.06
11361 C 50.06703594218902 114.11094517276447 116.0163475331403 C 0.0 **** -0.24
11362 H 50.97774671002634 114.03084224224867 116.61004146782986 H 0.0 **** 0.06
11363 H 50.31597846244085 114.47028539327346 115.01781496367369 H 0.0 **** 0.06
11364 H 49.38205757636791 114.81140777194258 116.49470500785841 H 0.0 **** 0.06
11365 H 49.59408181098894 113.1320878944558 115.94398156646474 H 0.0 **** 0.06
11366 C 20.200127624286182 18.55133384978661 134.44887270881998 C 0.0 **** -0.24
11367 H 19.475126278927178 18.06511754212208 133.79680003426708 H 0.0 **** 0.06
11368 H 21.089396896626766 18.810151879153253 133.87447873876016 H 0.0 **** 0.06
11369 H 20.474771078296186 17.872214832136265 135.25721699514997 H 0.0 **** 0.06
11370 H 19.76192722569911 19.456757532269002 134.86881131194886 H 0.0 **** 0.06
11371 C 42.988126987856305 43.000125068273405 10.049747507294455 C 0.0 **** -0.24
11372 H 42.01917469345881 43.2776281000522 9.633443975530525 H 0.0 **** 0.06
11373 H 43.21304724267746 41.965823020894476 9.788258988546943 H 0.0 **** 0.06
11374 H 42.96060941181912 43.10438534385975 11.134187278892256 H 0.0 **** 0.06
11375 H 43.75932586544428 43.65310465622056 9.640935792753908 H 0.0 **** 0.06
11376 C 33.53865302449146 105.4542552058602 110.00296316438502 C 0.0 **** -0.24
11377 H 33.89338147998818 105.98673477200377 110.88443818718929 H 0.0 **** 0.06
11378 H 32.50416192189854 105.14641960204416 110.15650951069847 H 0.0 **** 0.06
11379 H 34.15976621530717 104.57443391374436 109.83541331372123 H 0.0 **** 0.06
11380 H 33.596902367070314 106.11096378173868 109.13391195413566 H 0.0 **** 0.06
11381 C 66.63122651877808 6.463452460992528 12.015278407043994 C 0.0 **** -0.24
11382 H 65.58054864467942 6.694423313026618 11.843917780653172 H 0.0 **** 0.06
11383 H 67.1767225086374 6.533651494399891 11.074220342016861 H 0.0 **** 0.06
11384 H 66.72046890339305 5.452049753109293 12.412066048151686 H 0.0 **** 0.06
11385 H 67.0475970406984 7.172063621420762 12.731339074780838 H 0.0 **** 0.06
11386 C 131.55326122232538 23.865147816089845 8.803484777512526 C 0.0 **** -0.24
11387 H 132.3190065462075 23.116046957745425 9.005994245327404 H 0.0 **** 0.06
11388 H 130.65361083130477 23.374153152865325 8.43320184359968 H 0.0 **** 0.06
11389 H 131.9207005041551 24.565916401211126 8.053638901398887 H 0.0 **** 0.06
11390 H 131.3219082790357 24.404824410441513 9.72287051865829 H 0.0 **** 0.06
11391 C 66.8105123188704 127.67696516376121 54.77993370532707 C 0.0 **** -0.24
11392 H 66.00145050203474 127.12764971518519 54.29984984140397 H 0.0 **** 0.06
11393 H 67.46654327672917 128.09810741915254 54.01781647936214 H 0.0 **** 0.06
11394 H 67.38026919019228 126.9993417332767 55.41665947636264 H 0.0 **** 0.06
11395 H 66.3943432824538 128.48146843951739 55.385539874030556 H 0.0 **** 0.06
11396 C 95.24055349144226 37.793790829997874 78.1356846136113 C 0.0 **** -0.24
11397 H 94.47077976113628 37.87758132105057 78.90329235956139 H 0.0 **** 0.06
11398 H 94.93772956725229 38.36098586568255 77.25506065200338 H 0.0 **** 0.06
11399 H 95.37131003724252 36.74580929689898 77.86560591535296 H 0.0 **** 0.06
11400 H 96.18020237193936 38.190350506279174 78.5197815403345 H 0.0 **** 0.06
11401 C 93.25537128335958 57.096839584070096 134.7789537303955 C 0.0 **** -0.24
11402 H 93.85171414010804 56.2592201805209 134.41763118869164 H 0.0 **** 0.06
11403 H 93.70426973316455 57.4968293301164 135.68817892297653 H 0.0 **** 0.06
11404 H 92.24305329884518 56.75600909249174 134.9924083217402 H 0.0 **** 0.06
11405 H 93.22398071150923 57.87470176868648 134.01608210807268 H 0.0 **** 0.06
11406 C 52.90870795812833 118.0520120866936 35.85506535568361 C 0.0 **** -0.24
11407 H 53.1976357317032 119.0598877426738 35.55606118664849 H 0.0 **** 0.06
11408 H 53.80374680558012 117.46179587432033 36.05082625765513 H 0.0 **** 0.06
11409 H 52.333047264117056 117.58718809419659 35.05590993260893 H 0.0 **** 0.06
11410 H 52.30188457190039 118.10184093627996 36.75963296801113 H 0.0 **** 0.06
11411 C 3.501829498580509 22.33559173645517 15.7005562764298 C 0.0 **** -0.24
11412 H 4.241565910981198 22.561178780950797 16.4679189897102 H 0.0 **** 0.06
11413 H 2.502085024880717 22.52324094741593 16.09315003153936 H 0.0 **** 0.06
11414 H 3.587220328164978 21.289244189722993 15.409530125378431 H 0.0 **** 0.06
11415 H 3.676141220122126 22.969420074133268 14.830999417522243 H 0.0 **** 0.06
11416 C 96.51275209999568 101.43843665176391 23.562413841886453 C 0.0 **** -0.24
11417 H 96.38452995805014 100.39392893694816 23.845588268220297 H 0.0 **** 0.06
11418 H 97.51075216504398 101.58189491623318 23.146142608066498 H 0.0 **** 0.06
11419 H 96.39119534638384 102.07087058259373 24.44112840552652 H 0.0 **** 0.06
11420 H 95.76586735710616 101.70628409465894 22.815521641685464 H 0.0 **** 0.06
11421 C 10.432101801718517 59.70934967569653 16.447599160385778 C 0.0 **** -0.24
11422 H 10.023245033371467 58.710832393433634 16.29629022092874 H 0.0 **** 0.06
11423 H 10.477322544144272 60.23275908729363 15.493261865697377 H 0.0 **** 0.06
11424 H 11.435574296441303 59.63083342241136 16.86783634004894 H 0.0 **** 0.06
11425 H 9.793532972655129 60.26302702832852 17.136528286607643 H 0.0 **** 0.06
11426 C 99.67050360068136 110.22522164178832 118.74141170408271 C 0.0 **** -0.24
11427 H 100.53013170556403 110.18848878664878 119.41034463465468 H 0.0 **** 0.06
11428 H 98.86188967783406 109.62354259401599 119.15642123326577 H 0.0 **** 0.06
11429 H 99.95283551826117 109.83255880409698 117.76489461910032 H 0.0 **** 0.06
11430 H 99.33694622304854 111.25814684453792 118.6347152578588 H 0.0 **** 0.06
11431 C 19.44259480419143 92.15037327508973 124.67720342888951 C 0.0 **** -0.24
11432 H 19.353041501665928 92.31418301470707 123.60326179091706 H 0.0 **** 0.06
11433 H 20.389393031902024 91.65325186073893 124.89127476419186 H 0.0 **** 0.06
11434 H 18.617721927495722 91.52557314656225 125.01886637936254 H 0.0 **** 0.06
11435 H 19.411160216809208 93.10935813092708 125.1942449831151 H 0.0 **** 0.06
11436 C 61.27953603250384 44.71918282720111 34.295244590985305 C 0.0 **** -0.24
11437 H 61.51053340184103 44.40043565096093 35.31095343033286 H 0.0 **** 0.06
11438 H 60.48612307299567 45.46629407962408 34.32125854474407 H 0.0 **** 0.06
11439 H 60.94954353185588 43.85963091226418 33.71102925399259 H 0.0 **** 0.06
11440 H 62.16972609202048 45.14954970456262 33.8383748163061 H 0.0 **** 0.06
11441 C 54.41099326248269 62.357972939764124 87.09436353371046 C 0.0 **** -0.24
11442 H 54.998961951808056 61.92842235188061 86.2830656909776 H 0.0 **** 0.06
11443 H 54.89682106420332 63.26478688238522 87.4545647019296 H 0.0 **** 0.06
11444 H 54.336130037309985 61.637373809874504 87.90896556488934 H 0.0 **** 0.06
11445 H 53.41233295000224 62.598906093929116 86.73046678604129 H 0.0 **** 0.06
11446 C 54.66709621926003 102.3175416637877 41.35206460314441 C 0.0 **** -0.24
11447 H 54.191003482188876 103.29286715028687 41.25890402429758 H 0.0 **** 0.06
11448 H 54.15996805884913 101.60195540146186 40.7044610079335 H 0.0 **** 0.06
11449 H 54.60415933902925 101.98007323978086 42.386864631874005 H 0.0 **** 0.06
11450 H 55.71362713545136 102.39434323436802 41.05804658077221 H 0.0 **** 0.06
11451 C 122.6777350932764 101.81821901568537 110.17499714820696 C 0.0 **** -0.24
11452 H 123.31692623538851 102.03743241690603 109.31916756529482 H 0.0 **** 0.06
11453 H 123.24218929860479 101.96647751425698 111.09622458086358 H 0.0 **** 0.06
11454 H 122.3395568456267 100.7836119739058 110.11835971995214 H 0.0 **** 0.06
11455 H 121.81523773472435 102.48398523805179 110.1647177472729 H 0.0 **** 0.06
11456 C 59.38452147500077 26.61812935147576 29.19540881482598 C 0.0 **** -0.24
11457 H 59.801766874255804 25.883451999398588 28.506449784229744 H 0.0 **** 0.06
11458 H 59.44673816138575 26.23651980337769 30.21484950897053 H 0.0 **** 0.06
11459 H 58.341353496038025 26.804420067561864 28.939992682981995 H 0.0 **** 0.06
11460 H 59.949114591269705 27.547832196611942 29.1192817368929 H 0.0 **** 0.06
11461 C 61.49276023434936 133.98199099531024 65.66310449729497 C 0.0 **** -0.24
11462 H 61.313696031865334 133.0451111367202 65.1362609057469 H 0.0 **** 0.06
11463 H 62.550069783627634 134.23985988904388 65.59685312507759 H 0.0 **** 0.06
11464 H 61.21142328850064 133.87058992670057 66.71021069131069 H 0.0 **** 0.06
11465 H 60.896569052595964 134.77393488463213 65.20872023446373 H 0.0 **** 0.06
11466 C 87.86836467977207 31.521683529909865 6.016711147237004 C 0.0 **** -0.24
11467 H 87.11455136658407 30.744268046465578 5.89328220073449 H 0.0 **** 0.06
11468 H 88.00852950974215 31.727549378023298 7.0781880265644475 H 0.0 **** 0.06
11469 H 87.54029790238599 32.43022118387353 5.510551452393685 H 0.0 **** 0.06
11470 H 88.81099405589703 31.184924627826945 5.583768399362356 H 0.0 **** 0.06
11471 C 94.27459654932585 18.922964755658327 121.85183078697895 C 0.0 **** -0.24
11472 H 93.64976656168703 19.055715751152285 120.96833956218715 H 0.0 **** 0.06
11473 H 95.25624139841663 19.36145751806479 121.67186812954905 H 0.0 **** 0.06
11474 H 94.38369870529132 17.85844082318122 122.0614462030496 H 0.0 **** 0.06
11475 H 93.80770264688071 19.414670185156027 122.70491688422831 H 0.0 **** 0.06
11476 C 12.866370386103174 126.2367051807527 82.5898383564014 C 0.0 **** -0.24
11477 H 12.526518069445029 126.92451387268862 81.81582049574331 H 0.0 **** 0.06
11478 H 12.006163210390667 125.7240555884151 83.0221705725912 H 0.0 **** 0.06
11479 H 13.387736659814056 126.79368786399556 83.36765807366052 H 0.0 **** 0.06
11480 H 13.543401091027057 125.50342883979759 82.15106812432549 H 0.0 **** 0.06
11481 C 24.072058091710424 29.75874436092903 85.0788187463609 C 0.0 **** -0.24
11482 H 25.135800421605403 29.77613970461013 85.31701350263711 H 0.0 **** 0.06
11483 H 23.589546333130862 28.952822433305414 85.63236218703733 H 0.0 **** 0.06
11484 H 23.942482937168194 29.593750605128378 84.00954405416952 H 0.0 **** 0.06
11485 H 23.62162578336418 30.71167787871329 85.35675491453864 H 0.0 **** 0.06
11486 C 129.06559574293513 78.28632699633 113.3106663656396 C 0.0 **** -0.24
11487 H 128.42146885544827 78.88719872406979 112.67028937872132 H 0.0 **** 0.06
11488 H 128.67845857256015 77.26813033267202 113.36316860730426 H 0.0 **** 0.06
11489 H 129.08851198059656 78.71857771601356 114.3111873486269 H 0.0 **** 0.06
11490 H 130.07468779588856 78.26983722335953 112.89803407119311 H 0.0 **** 0.06
11491 C 4.35443627826578 11.097949844267589 45.057363178772185 C 0.0 **** -0.24
11492 H 5.260146030405906 11.537091008135803 45.475873578118694 H 0.0 **** 0.06
11493 H 3.4983171854206603 11.727577175809301 45.302931207900336 H 0.0 **** 0.06
11494 H 4.205322576911328 10.102604193077411 45.47760271477557 H 0.0 **** 0.06
11495 H 4.453596170256617 11.023896876976494 43.97425812799081 H 0.0 **** 0.06
11496 C 119.68139921775804 75.44220103772932 40.74624530531881 C 0.0 **** -0.24
11497 H 119.49650214541 74.88863086495326 41.66701249299442 H 0.0 **** 0.06
11498 H 119.88009379797785 76.48728400755917 40.98475344607357 H 0.0 **** 0.06
11499 H 118.80443458730058 75.37668828493088 40.10186482736793 H 0.0 **** 0.06
11500 H 120.54252475118824 75.01492596843704 40.233141164752794 H 0.0 **** 0.06
11501 C 103.87786169703584 20.495694514801187 100.03379359409746 C 0.0 **** -0.24
11502 H 103.36720914828987 21.015372256581628 100.84498106683975 H 0.0 **** 0.06
11503 H 103.40277289855048 19.52864826002218 99.86667905389231 H 0.0 **** 0.06
11504 H 104.9240071445076 20.345629597605523 100.30078477531305 H 0.0 **** 0.06
11505 H 103.8163204261152 21.092628877526522 99.12484089043863 H 0.0 **** 0.06
11506 C 85.20255260900035 45.032207067558886 133.22509727983243 C 0.0 **** -0.24
11507 H 84.14147368287536 44.795938629229624 133.3074612138533 H 0.0 **** 0.06
11508 H 85.43580228752387 45.883399653685885 133.8645265697545 H 0.0 **** 0.06
11509 H 85.44037474626913 45.279730075222176 132.1899788765005 H 0.0 **** 0.06
11510 H 85.79141603603176 44.169890655014854 133.5371282282391 H 0.0 **** 0.06
11511 C 74.48668572561468 48.690384726095544 16.767535943380686 C 0.0 **** -0.24
11512 H 74.35003628216839 48.75468641524948 15.688261528394392 H 0.0 **** 0.06
11513 H 74.58584307417709 47.64517663523496 17.05913822869408 H 0.0 **** 0.06
11514 H 73.62497498261729 49.128849168813986 17.269607186034918 H 0.0 **** 0.06
11515 H 75.38820681084957 49.23460310519749 17.051273871208416 H 0.0 **** 0.06
11516 C 95.94719065276001 111.51089757937581 108.46952908002235 C 0.0 **** -0.24
11517 H 95.05284491766497 111.35990894252811 107.86339684223722 H 0.0 **** 0.06
11518 H 95.9474936620154 110.80247703109694 109.29769287955551 H 0.0 **** 0.06
11519 H 95.95258273634715 112.52869945282109 108.86073155290187 H 0.0 **** 0.06
11520 H 96.83336599019503 111.35345061477489 107.85456908590042 H 0.0 **** 0.06
11521 C 79.54382062539479 62.332915562106734 134.35214030790138 C 0.0 **** -0.24
11522 H 78.7229468149435 63.0494924608918 134.3808073437272 H 0.0 **** 0.06
11523 H 80.36966255833448 62.70346199111691 134.95976151152217 H 0.0 **** 0.06
11524 H 79.87934060348613 62.204063427355976 133.32317503818916 H 0.0 **** 0.06
11525 H 79.20317164208296 61.375259483236334 134.74642851486033 H 0.0 **** 0.06
11526 C 34.96259599189281 103.09628103331193 103.70564266199443 C 0.0 **** -0.24
11527 H 34.640202073684804 102.75373999826726 102.72141456366353 H 0.0 **** 0.06
11528 H 34.186677151780145 103.72418124656733 104.14340324749065 H 0.0 **** 0.06
11529 H 35.882984357323664 103.67214731255979 103.6047695507292 H 0.0 **** 0.06
11530 H 35.14058198086812 102.2352153878997 104.34938172135952 H 0.0 **** 0.06
11531 C 40.074571158392814 21.23323758979336 59.68120785656578 C 0.0 **** -0.24
11532 H 39.899872924359954 22.12289478923867 59.075140440260725 H 0.0 **** 0.06
11533 H 39.72557350193722 21.413796624220026 60.69825513393687 H 0.0 **** 0.06
11534 H 41.1414134968457 21.008937597861745 59.69676511474074 H 0.0 **** 0.06
11535 H 39.531061675956835 20.390924036642843 59.25372761044662 H 0.0 **** 0.06
11536 C 134.3587959616937 72.87954473645618 71.20899175575397 C 0.0 **** -0.24
11537 H 133.4628951968494 72.97467638982742 71.82252484396284 H 0.0 **** 0.06
11538 H 135.0212976834234 73.72481985988668 71.3993140262501 H 0.0 **** 0.06
11539 H 134.07867246428583 72.86785609966454 70.15584682456108 H 0.0 **** 0.06
11540 H 134.87328331084436 71.951031537615 71.45811643501906 H 0.0 **** 0.06
11541 C 80.95692362066825 103.48906812626358 80.84749758457298 C 0.0 **** -0.24
11542 H 80.37323374888717 103.81209640645945 79.98455204723678 H 0.0 **** 0.06
11543 H 81.32881672247709 102.47801644457917 80.67520951923217 H 0.0 **** 0.06
11544 H 80.32661488793698 103.4989037266638 81.73647182705696 H 0.0 **** 0.06
11545 H 81.79817260442951 104.16622961390901 80.99040826464943 H 0.0 **** 0.06
11546 C 135.30981454998323 131.17632223222952 136.8277944771955 C 0.0 **** -0.24
11547 H 134.8524202825733 132.140352662851 136.60337096420812 H 0.0 **** 0.06
11548 H 135.51223516365192 131.11141793204882 137.89767599822318 H 0.0 **** 0.06
11549 H 136.24428794121008 131.0808510436491 136.27466356623117 H 0.0 **** 0.06
11550 H 134.63080398148324 130.37513706832289 136.53709873773886 H 0.0 **** 0.06
11551 C 4.581167869776149 95.48438836225068 23.426643859171747 C 0.0 **** -0.24
11552 H 3.759326455492154 95.17879533206559 22.778528370375625 H 0.0 **** 0.06
11553 H 5.4964844187556885 95.56337074746276 22.838859437683922 H 0.0 **** 0.06
11554 H 4.718180939876422 94.74360397802147 24.214515666383868 H 0.0 **** 0.06
11555 H 4.3515450360629835 96.45188066012486 23.872871446461865 H 0.0 **** 0.06
11556 C 79.85522879979735 113.00669152482956 6.849746170767588 C 0.0 **** -0.24
11557 H 80.24368345080089 111.98961459916461 6.890752551537105 H 0.0 **** 0.06
11558 H 79.54484193530071 113.31795921508419 7.846738367503434 H 0.0 **** 0.06
11559 H 78.99945012068432 113.04135376143276 6.1750718246453005 H 0.0 **** 0.06
11560 H 80.63323138054442 113.67778601572462 6.483990388639427 H 0.0 **** 0.06
11561 C 124.11236750868522 109.90455823763611 28.777623412503985 C 0.0 **** -0.24
11562 H 125.0282138523313 109.9891698661329 28.191978087569822 H 0.0 **** 0.06
11563 H 123.34297769111859 109.4142766907785 28.17913825197074 H 0.0 **** 0.06
11564 H 123.77148418900177 110.89878688916542 29.06451705411464 H 0.0 **** 0.06
11565 H 124.30742110215292 109.31383498765342 29.673150765306886 H 0.0 **** 0.06
11566 C 75.70078121307323 126.61618748437309 51.33178400601642 C 0.0 **** -0.24
11567 H 76.31020417143608 126.65328444908869 52.234761047043406 H 0.0 **** 0.06
11568 H 75.9748757128714 127.44213362709019 50.67560245608466 H 0.0 **** 0.06
11569 H 74.6483375890696 126.69800843366295 51.60006506981114 H 0.0 **** 0.06
11570 H 75.87269414519575 125.67114904130705 50.81692933783532 H 0.0 **** 0.06
11571 C 102.3962652306596 18.51409413984669 130.8257428689948 C 0.0 **** -0.24
11572 H 101.96582958972388 18.77956359044316 129.859677014746 H 0.0 **** 0.06
11573 H 101.61562839757752 18.528782795374298 131.58733758481216 H 0.0 **** 0.06
11574 H 103.17247975165463 19.234063325195223 131.08658091914626 H 0.0 **** 0.06
11575 H 102.8300594104463 17.51592534563713 130.76919455522062 H 0.0 **** 0.06
11576 C 32.28892564734615 3.6424209789074666 77.15394899363622 C 0.0 **** -0.24
11577 H 33.12737874366492 3.0766441288969872 77.56215127048773 H 0.0 **** 0.06
11578 H 32.332371797400235 3.620980881839955 76.06553465859844 H 0.0 **** 0.06
11579 H 32.34450678830194 4.6742061557639545 77.50142296618992 H 0.0 **** 0.06
11580 H 31.352744605991525 3.1958613273372976 77.49005556961006 H 0.0 **** 0.06
11581 C 1.0940808333336633 67.08713061518189 14.837812369453843 C 0.0 **** -0.24
11582 H 1.529191819404872 66.21494645560782 14.34892554537916 H 0.0 **** 0.06
11583 H 0.007870685853504256 66.9882490260681 14.856762201458935 H 0.0 **** 0.06
11584 H 1.3672194847688957 67.9872231200565 14.2860498543412 H 0.0 **** 0.06
11585 H 1.4715557974026012 67.15796578058684 15.858190789121906 H 0.0 **** 0.06
11586 C 19.717181760878248 57.086273290681106 64.03564061239695 C 0.0 **** -0.24
11587 H 19.698950413701567 58.032900236321055 64.57498935849094 H 0.0 **** 0.06
11588 H 20.621601791916333 56.536639073448356 64.29689088870418 H 0.0 **** 0.06
11589 H 19.7048011012277 57.2794891151276 62.96305195946297 H 0.0 **** 0.06
11590 H 18.842299242150574 56.49617351170862 64.30854332697237 H 0.0 **** 0.06
11591 C 20.085657618821784 105.26509316807105 61.84312630823203 C 0.0 **** -0.24
11592 H 20.437744258861272 105.32494677001807 62.87295231560853 H 0.0 **** 0.06
11593 H 20.80362287754474 105.75680068152917 61.185128004207655 H 0.0 **** 0.06
11594 H 19.118997071931858 105.76077782747734 61.76103422286033 H 0.0 **** 0.06
11595 H 19.98453654856769 104.21981237429178 61.55438322961152 H 0.0 **** 0.06
11596 C 23.400182923466957 17.43140403002039 6.523555873702605 C 0.0 **** -0.24
11597 H 22.377885945359196 17.68139538246612 6.240152865763633 H 0.0 **** 0.06
11598 H 23.555915348468545 16.35833837524143 6.412535282524459 H 0.0 **** 0.06
11599 H 23.570082598100726 17.718602684931653 7.560879382528356 H 0.0 **** 0.06
11600 H 24.09625156393838 17.96896838305929 5.879765481556433 H 0.0 **** 0.06
11601 C 69.77230480099871 24.144997927363022 6.1443859618466945 C 0.0 **** -0.24
11602 H 70.56496795021854 23.51261632832916 6.543388061440897 H 0.0 **** 0.06
11603 H 70.20971265501282 25.038171475693417 5.697852132198189 H 0.0 **** 0.06
11604 H 69.09796788251043 24.434722716486476 6.951327352913744 H 0.0 **** 0.06
11605 H 69.21577875726473 23.594914014977704 5.386065132904331 H 0.0 **** 0.06
11606 C 82.2880590237715 99.49655471841255 100.29551395206023 C 0.0 **** -0.24
11607 H 82.04798076274622 98.53581805979833 100.75128097138918 H 0.0 **** 0.06
11608 H 81.67120018101502 99.64202730352461 99.40842715810737 H 0.0 **** 0.06
11609 H 83.34100600865582 99.51314993646332 100.01404759181689 H 0.0 **** 0.06
11610 H 82.09007523297902 100.29542989387917 101.0097358413169 H 0.0 **** 0.06
11611 C 73.35170867064795 101.80055703204653 41.889066273615356 C 0.0 **** -0.24
11612 H 73.33651207921295 102.30467856354272 40.92343976882006 H 0.0 **** 0.06
11613 H 72.48711835687212 101.1406045285554 41.968460243513334 H 0.0 **** 0.06
11614 H 73.31627931029088 102.54293122759714 42.68648798336079 H 0.0 **** 0.06
11615 H 74.26591080475332 101.21453111363024 41.97871616101946 H 0.0 **** 0.06
11616 C 23.26143986725853 6.545730962239791 86.7003321032824 C 0.0 **** -0.24
11617 H 22.610066157705006 5.759933131325276 87.0817873206918 H 0.0 **** 0.06
11618 H 22.98117885337399 6.782837937098961 85.67339677581649 H 0.0 **** 0.06
11619 H 24.29669009638667 6.204020661486197 86.72529493600075 H 0.0 **** 0.06
11620 H 23.158744886335768 7.437270000365956 87.31992309810404 H 0.0 **** 0.06
11621 C 81.43608691594777 33.34539241787553 113.44075498870154 C 0.0 **** -0.24
11622 H 81.17370522992063 33.67635421522985 112.4360673823794 H 0.0 **** 0.06
11623 H 80.59541898291386 32.80586752482043 113.87757348874499 H 0.0 **** 0.06
11624 H 81.67250197000313 34.21209704125749 114.0575143016809 H 0.0 **** 0.06
11625 H 82.30377733328635 32.6877100011132 113.39104351121216 H 0.0 **** 0.06
11626 C 109.12244196312378 134.65135925609775 135.8984546092419 C 0.0 **** -0.24
11627 H 108.32880580739788 134.6487728756772 135.14998943585664 H 0.0 **** 0.06
11628 H 108.79319086163419 135.2108321378863 136.77383386998713 H 0.0 **** 0.06
11629 H 110.01314783931528 135.12009687358267 135.47976120995907 H 0.0 **** 0.06
11630 H 109.3530197372527 133.62577426388953 136.18618079957582 H 0.0 **** 0.06
11631 C 22.10366613269457 127.36605460813018 131.61168951601363 C 0.0 **** -0.24
11632 H 21.15742313657273 127.58681578667256 131.11700194817843 H 0.0 **** 0.06
11633 H 22.75526283484436 126.8259666681194 130.92438111160385 H 0.0 **** 0.06
11634 H 21.917215394675736 126.75213226121559 132.4938055029753 H 0.0 **** 0.06
11635 H 22.582913595500315 128.29718081577005 131.91183923641884 H 0.0 **** 0.06
11636 C 32.439124672692074 3.0151704854227432 107.67744563129041 C 0.0 **** -0.24
11637 H 32.50936044178184 2.0798684208995155 107.12204212839644 H 0.0 **** 0.06
11638 H 32.67410261441698 2.8335025813657353 108.72628413631368 H 0.0 **** 0.06
11639 H 31.42704174281235 3.4121114496265363 107.59540845020459 H 0.0 **** 0.06
11640 H 33.145993891757 3.735199489799413 107.26604781024695 H 0.0 **** 0.06
11641 C 97.24346367615459 56.332404202383174 27.429205488767366 C 0.0 **** -0.24
11642 H 97.22509571892661 56.70106390376314 28.454852947253585 H 0.0 **** 0.06
11643 H 98.1484978068691 55.74646646486087 27.270516395935545 H 0.0 **** 0.06
11644 H 97.23212909830494 57.17775847443018 26.74028110784502 H 0.0 **** 0.06
11645 H 96.36912653016915 55.70715161194484 27.252599301633836 H 0.0 **** 0.06
11646 C 81.57382384789452 49.89532072877921 69.70003966741982 C 0.0 **** -0.24
11647 H 81.59717544688607 50.831916122043936 69.1437728324767 H 0.0 **** 0.06
11648 H 82.54669453479539 49.72036528765267 70.15795474734918 H 0.0 **** 0.06
11649 H 81.33936462354501 49.07617915303024 69.01938258312155 H 0.0 **** 0.06
11650 H 80.81050061826659 49.95202952753374 70.47605888126182 H 0.0 **** 0.06
11651 C 85.34003976409655 115.31412558062769 128.44087626117917 C 0.0 **** -0.24
11652 H 86.34416410419712 115.108504936603 128.81118491941385 H 0.0 **** 0.06
11653 H 84.60646366041587 114.89354335522881 129.1293962674857 H 0.0 **** 0.06
11654 H 85.2154016648105 114.86174527306386 127.45704575570319 H 0.0 **** 0.06
11655 H 85.19377716391504 116.39142150745869 128.36634591567525 H 0.0 **** 0.06
11656 C 29.74159173647834 68.90140023247733 7.13322931024409 C 0.0 **** -0.24
11657 H 28.93421578637708 68.16945510038133 7.105761650910345 H 0.0 **** 0.06
11658 H 29.725120466673275 69.42307495685048 8.090155766180754 H 0.0 **** 0.06
11659 H 29.608053364280863 69.6199209521281 6.324433571194273 H 0.0 **** 0.06
11660 H 30.697576970961933 68.3911402104898 7.012547756947352 H 0.0 **** 0.06
11661 C 85.52415059361891 112.52485995490099 95.43727282553562 C 0.0 **** -0.24
11662 H 86.21773575273566 112.97506869775287 96.14843514282762 H 0.0 **** 0.06
11663 H 85.69395424791308 112.94786901307356 94.44753392925531 H 0.0 **** 0.06
11664 H 84.50045137737304 112.72898442173266 95.749999778568 H 0.0 **** 0.06
11665 H 85.68700174955454 111.44752835145886 95.4052543449601 H 0.0 **** 0.06
11666 C 1.2885177114390842 17.486683948378868 69.13683555362195 C 0.0 **** -0.24
11667 H 1.1047339414884334 16.732873636078835 69.90249710247099 H 0.0 **** 0.06
11668 H 2.0617218353115447 18.173746053042834 69.48200964397574 H 0.0 **** 0.06
11669 H 0.36937688446326433 18.039965789627473 68.9448892292906 H 0.0 **** 0.06
11670 H 1.6182953744340693 16.999963052215463 68.21934686530346 H 0.0 **** 0.06
11671 C 15.138368803907554 132.62810912959122 74.66129439764744 C 0.0 **** -0.24
11672 H 14.416789856570972 133.41276433568677 74.43572611034867 H 0.0 **** 0.06
11673 H 15.023675045428547 132.31771128123182 75.70125724061621 H 0.0 **** 0.06
11674 H 16.14816581194941 133.0073636123143 74.5044597630923 H 0.0 **** 0.06
11675 H 14.964039316000822 131.77468667150188 74.00581868346683 H 0.0 **** 0.06
11676 C 57.69896141849668 8.416813671041098 99.35317335673685 C 0.0 **** -0.24
11677 H 56.81916101732611 7.808664862096009 99.14128807185398 H 0.0 **** 0.06
11678 H 58.29095487447792 7.939779763382319 100.13470422213561 H 0.0 **** 0.06
11679 H 57.38550029666209 9.40615498326747 99.68752345654292 H 0.0 **** 0.06
11680 H 58.30022948552066 8.512655075418479 98.44917767641465 H 0.0 **** 0.06
11681 C 83.87217741869614 68.99967587432349 100.27883222818218 C 0.0 **** -0.24
11682 H 83.48105788126009 68.00891087968625 100.04342963087421 H 0.0 **** 0.06
11683 H 83.34936989481614 69.3988181183395 101.14859074128844 H 0.0 **** 0.06
11684 H 83.71945371626691 69.66212144442136 99.42640191937708 H 0.0 **** 0.06
11685 H 84.937599639518 68.92673215226296 100.49549494654981 H 0.0 **** 0.06
11686 C 91.19801699112637 132.84959510726102 52.260449433890415 C 0.0 **** -0.24
11687 H 92.03010452582134 133.06202456489993 52.93100523128906 H 0.0 **** 0.06
11688 H 90.75231745715007 131.89031693428439 52.525919641886674 H 0.0 **** 0.06
11689 H 91.56121174099798 132.80978536900008 51.23247622481152 H 0.0 **** 0.06
11690 H 90.44965078364609 133.63689670641224 52.35063407739342 H 0.0 **** 0.06
11691 C 18.67757126420858 55.31481791303672 47.27060451363917 C 0.0 **** -0.24
11692 H 17.65731864592967 55.51392420316712 46.93962802694762 H 0.0 **** 0.06
11693 H 19.283557081395102 56.21048241088134 47.13509678574562 H 0.0 **** 0.06
11694 H 19.096274475657964 54.49818112923619 46.682365572418234 H 0.0 **** 0.06
11695 H 18.66912034648145 55.03684246707452 48.32440064314633 H 0.0 **** 0.06
11696 C 94.20050455528832 27.24845510703358 109.85380477349071 C 0.0 **** -0.24
11697 H 93.20257361965906 26.982222168802394 109.50344639011678 H 0.0 **** 0.06
11698 H 94.93706840066918 26.60023422726651 109.37723627388556 H 0.0 **** 0.06
11699 H 94.25100296570704 27.12428888112295 110.9350992187247 H 0.0 **** 0.06
11700 H 94.41048853625091 28.28667838055523 109.59642717059867 H 0.0 **** 0.06
11701 C 131.07293890899368 91.20419546105202 88.09370898922822 C 0.0 **** -0.24
11702 H 131.33491180615104 90.84330595594237 87.09993791316685 H 0.0 **** 0.06
11703 H 131.7091785712819 92.05208107712204 88.35177533401304 H 0.0 **** 0.06
11704 H 131.220431813848 90.40556313635336 88.82086187882743 H 0.0 **** 0.06
11705 H 130.0290915828396 91.51722164462691 88.10387813645968 H 0.0 **** 0.06
11706 C 70.55007084963033 58.80224715297521 68.86602036835238 C 0.0 **** -0.24
11707 H 70.92774301167813 59.41953536312593 68.05139467019437 H 0.0 **** 0.06
11708 H 69.55169149156491 58.4424002336043 68.61691211217696 H 0.0 **** 0.06
11709 H 70.50499669195696 59.395189498285674 69.7801449823064 H 0.0 **** 0.06
11710 H 71.21596696306867 57.95335115922819 69.01650941862604 H 0.0 **** 0.06
11711 C 107.62769877266771 11.35970708284097 123.91543757277344 C 0.0 **** -0.24
11712 H 106.88974848068005 11.529712461103742 124.70043991280619 H 0.0 **** 0.06
11713 H 107.72021986210655 12.257873606910778 123.30397632840896 H 0.0 **** 0.06
11714 H 107.30797789829967 10.525271737828064 123.29159363396201 H 0.0 **** 0.06
11715 H 108.59226276778128 11.127031763188342 124.3684846279807 H 0.0 **** 0.06
11716 C 51.409949452017486 93.18784909326527 44.43643262920685 C 0.0 **** -0.24
11717 H 50.46101736718461 92.84528337624711 44.849938037325586 H 0.0 **** 0.06
11718 H 51.343374875879306 93.21174595252704 43.3481087388465 H 0.0 **** 0.06
11719 H 52.2039879588948 92.50502627425861 44.738048098608026 H 0.0 **** 0.06
11720 H 51.62846724403275 94.18829225939253 44.81007887168847 H 0.0 **** 0.06
11721 C 121.18830884128474 62.40917018249982 15.814996640766935 C 0.0 **** -0.24
11722 H 121.23896849186721 63.18994121540038 15.056132849873961 H 0.0 **** 0.06
11723 H 121.2813901748724 62.85744650336375 16.80477506131251 H 0.0 **** 0.06
11724 H 121.99925770960881 61.69814259435333 15.660343098967758 H 0.0 **** 0.06
11725 H 120.2311759518827 61.891036099411934 15.738872594010559 H 0.0 **** 0.06
11726 C 5.771846655209451 133.6405128639148 72.98913313142327 C 0.0 **** -0.24
11727 H 6.600228903406144 133.3397587957072 73.6312810473209 H 0.0 **** 0.06
11728 H 4.842444176387957 133.2184151903372 73.37510434689591 H 0.0 **** 0.06
11729 H 5.944670691959317 133.27479389104118 71.9773596834379 H 0.0 **** 0.06
11730 H 5.698687402101157 134.72742427814674 72.97585504227834 H 0.0 **** 0.06
11731 C 0.9310849696372543 9.7492558025873 105.27345876065145 C 0.0 **** -0.24
11732 H 1.3635934593836794 9.423377851945247 104.3277294076573 H 0.0 **** 0.06
11733 H 0.09408986491004612 9.10110547731739 105.53217943801558 H 0.0 **** 0.06
11734 H 0.5793675049629599 10.776566768437476 105.17720348933165 H 0.0 **** 0.06
11735 H 1.6878411244339588 9.696783203365385 106.0569202232099 H 0.0 **** 0.06
11736 C 93.58694276893901 29.096845083984505 131.14481915400256 C 0.0 **** -0.24
11737 H 94.64473885350783 28.837695165180236 131.0893856433264 H 0.0 **** 0.06
11738 H 93.16659021003538 29.12132140864469 130.13923588260877 H 0.0 **** 0.06
11739 H 93.47744494052104 30.07659639516845 131.6098714726357 H 0.0 **** 0.06
11740 H 93.06191581652493 28.35066330883609 131.74129591399156 H 0.0 **** 0.06
11741 C 130.6774474593155 100.9354176978542 65.49201810308432 C 0.0 **** -0.24
11742 H 131.06132191380803 101.82235657588879 64.98803011906523 H 0.0 **** 0.06
11743 H 131.34339812197786 100.09271543796072 65.30166117523186 H 0.0 **** 0.06
11744 H 129.68188082672697 100.70440509716437 65.11166909174904 H 0.0 **** 0.06
11745 H 130.62363384846196 101.12136250838142 66.56445115952613 H 0.0 **** 0.06
11746 C 91.08819951670867 72.55944164150809 95.14471389605723 C 0.0 **** -0.24
11747 H 90.6347991442629 71.56859888084543 95.17114843532006 H 0.0 **** 0.06
11748 H 91.19138309269431 72.93835569751967 96.16086166499554 H 0.0 **** 0.06
11749 H 90.45492926254207 73.23324481718859 94.56776752201812 H 0.0 **** 0.06
11750 H 92.07113199504829 72.49736540473906 94.67827062893326 H 0.0 **** 0.06
11751 C 66.38897320644867 59.98846409438352 32.0780578206564 C 0.0 **** -0.24
11752 H 67.13381280463744 60.455407974903835 32.722682873992966 H 0.0 **** 0.06
11753 H 66.0241284340126 59.07550600087376 32.547986371110625 H 0.0 **** 0.06
11754 H 66.84258521872147 59.746988637807476 31.116232026593252 H 0.0 **** 0.06
11755 H 65.55813646009568 60.67634955126505 31.92574270367288 H 0.0 **** 0.06
11756 C 53.07012674531194 47.152250412114995 3.7309172106342885 C 0.0 **** -0.24
11757 H 53.33605795186173 47.760212352568885 4.595700962886838 H 0.0 **** 0.06
11758 H 53.02152531611145 46.10341506482257 4.024817549693694 H 0.0 **** 0.06
11759 H 53.82431045155431 47.27705090340794 2.9537191338956177 H 0.0 **** 0.06
11760 H 52.099589682140476 47.468445582241145 3.349253141779002 H 0.0 **** 0.06
11761 C 69.21479397437291 43.40658686005361 45.43148625401612 C 0.0 **** -0.24
11762 H 69.86753391341104 44.09110241574518 44.88973253779684 H 0.0 **** 0.06
11763 H 69.57204353928519 43.296308769810096 46.45500739192039 H 0.0 **** 0.06
11764 H 69.2184575376924 42.4346414075072 44.93727808337998 H 0.0 **** 0.06
11765 H 68.20024531375569 43.80520772161431 45.442092662621086 H 0.0 **** 0.06
11766 C 37.43181509164559 44.70315654246082 36.955704246476195 C 0.0 **** -0.24
11767 H 37.721010602991186 45.51618461295999 36.28981583803426 H 0.0 **** 0.06
11768 H 36.355369803441164 44.73539432238104 37.12195495157866 H 0.0 **** 0.06
11769 H 37.95038414339743 44.812087276088846 37.9079417533177 H 0.0 **** 0.06
11770 H 37.70167342185107 43.74864687629537 36.502386586085905 H 0.0 **** 0.06
11771 C 62.364721690806974 8.400087605306624 126.99861191772187 C 0.0 **** -0.24
11772 H 61.79707475537397 9.238791866198738 126.59626361727929 H 0.0 **** 0.06
11773 H 63.378092948247385 8.421498631316496 126.59769256792781 H 0.0 **** 0.06
11774 H 61.88106968381848 7.465736992009425 126.71597138666286 H 0.0 **** 0.06
11775 H 62.4022247132453 8.476310028750078 128.08545355430724 H 0.0 **** 0.06
11776 C 59.516558913387115 68.94167317866915 104.16938284485917 C 0.0 **** -0.24
11777 H 59.86481315656944 68.8029566115832 105.19260458540722 H 0.0 **** 0.06
11778 H 60.26619883351182 69.49462134846786 103.60283063994444 H 0.0 **** 0.06
11779 H 58.58026004217672 69.4997874263296 104.17586174846235 H 0.0 **** 0.06
11780 H 59.35553325836959 67.96816261169255 103.70566956801298 H 0.0 **** 0.06
11781 C 29.851224154713172 33.194995540013366 123.43019169755587 C 0.0 **** -0.24
11782 H 30.510867826267692 32.378164836313005 123.71993952964442 H 0.0 **** 0.06
11783 H 28.813343758682088 32.86935433588392 123.50646879604199 H 0.0 **** 0.06
11784 H 30.06569264915104 33.488251126582156 122.4028502468488 H 0.0 **** 0.06
11785 H 30.014681327166684 34.04582573293591 124.09205484414065 H 0.0 **** 0.06
11786 C 24.800511587397267 98.36289267991532 82.38929220802098 C 0.0 **** -0.24
11787 H 25.718908197449196 98.89106057588589 82.64487465104223 H 0.0 **** 0.06
11788 H 24.81224758575945 97.37330321236277 82.84698320765558 H 0.0 **** 0.06
11789 H 24.727722082238273 98.26197248512594 81.30698411549783 H 0.0 **** 0.06
11790 H 23.943057293833363 98.92440147776244 82.76062774428972 H 0.0 **** 0.06
11791 C 60.9869012878484 24.793465547995908 124.50502112226002 C 0.0 **** -0.24
11792 H 60.92630986074643 23.820582876398277 124.99321684824332 H 0.0 **** 0.06
11793 H 61.70448998394167 24.74406878394447 123.68614904643357 H 0.0 **** 0.06
11794 H 61.30938493793265 25.542993903954567 125.22799457844374 H 0.0 **** 0.06
11795 H 60.00601579653812 25.065599328390704 124.114007099628 H 0.0 **** 0.06
11796 C 65.48254225381294 136.4400027112357 59.776604199662145 C 0.0 **** -0.24
11797 H 66.49491620226854 136.3108506180763 59.39254843225413 H 0.0 **** 0.06
11798 H 64.8950708471591 135.54747110253481 59.560073001634834 H 0.0 **** 0.06
11799 H 65.02138493799282 137.3049118525904 59.29858723180193 H 0.0 **** 0.06
11800 H 65.52119346802863 136.59821346458523 60.85476677678794 H 0.0 **** 0.06
11801 C 4.1822097691605435 45.19359769186576 89.34054079820106 C 0.0 **** -0.24
11802 H 5.21840595782437 45.01351782351077 89.62578583909749 H 0.0 **** 0.06
11803 H 3.5645126595804335 44.35970974595247 89.67453668658231 H 0.0 **** 0.06
11804 H 4.114217613249139 45.28464034824162 88.25681927996811 H 0.0 **** 0.06
11805 H 3.831733604648555 46.11488763541138 89.80559170898215 H 0.0 **** 0.06
11806 C 40.11709166206015 88.4085413643241 75.06793787396752 C 0.0 **** -0.24
11807 H 41.113167713745554 88.28247081710873 75.49158838112531 H 0.0 **** 0.06
11808 H 39.61354670501515 89.23800188676216 75.56373394710215 H 0.0 **** 0.06
11809 H 39.5423992533635 87.4933387606431 75.21287554061536 H 0.0 **** 0.06
11810 H 40.200912620958064 88.61918566058682 74.00112854097863 H 0.0 **** 0.06
11811 C 16.309409043340132 88.08860925510498 125.92048425405017 C 0.0 **** -0.24
11812 H 15.252645523580853 88.01575449012594 125.66503548874408 H 0.0 **** 0.06
11813 H 16.4535360897421 88.89164158877225 126.64466628832054 H 0.0 **** 0.06
11814 H 16.886185354115902 88.3025117389594 125.02079049171073 H 0.0 **** 0.06
11815 H 16.64510827519984 87.14574066440207 126.35215647364112 H 0.0 **** 0.06
11816 C 117.36147235948744 128.53871172607845 41.57376848049756 C 0.0 **** -0.24
11817 H 118.22909376753978 128.7740503083521 42.18958084816046 H 0.0 **** 0.06
11818 H 117.10058597744393 129.4060838296071 40.96596664511608 H 0.0 **** 0.06
11819 H 116.52029417148725 128.2783248585905 42.21529006460713 H 0.0 **** 0.06
11820 H 117.59621881934237 127.696210675445 40.92254026913537 H 0.0 **** 0.06
11821 C 4.366156021379538 76.21319594844931 116.80850393688698 C 0.0 **** -0.24
11822 H 3.5130708014944503 76.09226648863043 117.4760799491388 H 0.0 **** 0.06
11823 H 4.599206864995324 77.2732277298725 116.70528565773995 H 0.0 **** 0.06
11824 H 4.124770596335452 75.79655274992504 115.83088920717228 H 0.0 **** 0.06
11825 H 5.22840692002768 75.69045722962744 117.2238179544434 H 0.0 **** 0.06
11826 C 60.87961342361061 77.30938115697815 126.92639299682827 C 0.0 **** -0.24
11827 H 61.30368370184419 77.54097766128885 125.94917984976826 H 0.0 **** 0.06
11828 H 60.00839920428814 77.93949196657704 127.10312492881144 H 0.0 **** 0.06
11829 H 61.62562368912887 77.49487917720033 127.69871559691012 H 0.0 **** 0.06
11830 H 60.582159034398444 76.26070808015405 126.95362835559467 H 0.0 **** 0.06
11831 C 86.62463138007382 88.77336825451783 118.37822852758018 C 0.0 **** -0.24
11832 H 87.08544207244327 87.82455477076158 118.10289862640181 H 0.0 **** 0.06
11833 H 85.65225599541066 88.5851046282283 118.83554687688397 H 0.0 **** 0.06
11834 H 86.49451150412645 89.38615364381897 117.48633002554155 H 0.0 **** 0.06
11835 H 87.26531935654708 89.29595472303049 119.08845339105301 H 0.0 **** 0.06
11836 C 80.28433542003756 106.19406483751641 132.3209199571371 C 0.0 **** -0.24
11837 H 81.35231134549994 106.23236018301998 132.53682960641925 H 0.0 **** 0.06
11838 H 79.8820864724454 107.20709979998179 132.29399335823655 H 0.0 **** 0.06
11839 H 79.7768592607031 105.62180560643463 133.0971604849076 H 0.0 **** 0.06
11840 H 80.12785153530825 105.71422103579266 131.35456453403833 H 0.0 **** 0.06
11841 C 106.49320177960135 73.87695373866757 81.07673859393721 C 0.0 **** -0.24
11842 H 105.9961925257464 72.90601417377445 81.06811860685801 H 0.0 **** 0.06
11843 H 107.5223208009852 73.75418499984295 81.41382303986583 H 0.0 **** 0.06
11844 H 105.96601092088463 74.54825624311485 81.75445519946803 H 0.0 **** 0.06
11845 H 106.48764009778178 74.29616369986007 80.07116906177313 H 0.0 **** 0.06
11846 C 72.87448391300872 104.3842646097974 7.709911778646312 C 0.0 **** -0.24
11847 H 73.3904686477961 105.21742735872968 8.187118914225813 H 0.0 **** 0.06
11848 H 72.38492979049938 103.77648043751333 8.471868663454241 H 0.0 **** 0.06
11849 H 73.59563880751855 103.77468804478676 7.165643388170402 H 0.0 **** 0.06
11850 H 72.12667096434603 104.77007717238521 7.016546394465749 H 0.0 **** 0.06
11851 C 33.101963240102066 136.69288507142875 63.467692018574354 C 0.0 **** -0.24
11852 H 33.4107965130265 137.63316541436686 63.01116607225677 H 0.0 **** 0.06
11853 H 33.24429261088255 136.74997490453586 64.54735641713415 H 0.0 **** 0.06
11854 H 33.70399558723585 135.8780324745396 63.06451910196748 H 0.0 **** 0.06
11855 H 32.0507873611877 136.51033114272443 63.24868674200772 H 0.0 **** 0.06
11856 C 33.893457350016575 116.62390524669328 113.72676203122876 C 0.0 **** -0.24
11857 H 34.691118032572064 116.32516273428371 113.04649266055256 H 0.0 **** 0.06
11858 H 33.03523166426109 115.96570519473767 113.59067590103655 H 0.0 **** 0.06
11859 H 33.600448775173646 117.65210535570716 113.51337132123999 H 0.0 **** 0.06
11860 H 34.24778342917119 116.5523356134774 114.75442579772019 H 0.0 **** 0.06
11861 C 123.453176460681 95.24418912322749 94.98288783796582 C 0.0 **** -0.24
11862 H 123.63263225726143 95.64301387473346 95.98087153342442 H 0.0 **** 0.06
11863 H 124.110928137386 95.74113295870126 94.26933990851575 H 0.0 **** 0.06
11864 H 122.41472021894901 95.4186609829477 94.70236112024543 H 0.0 **** 0.06
11865 H 123.65652755502208 94.17326504659111 94.97864247483022 H 0.0 **** 0.06
11866 C 95.30609292215303 61.00122681736224 25.32782224446749 C 0.0 **** -0.24
11867 H 94.95043439950169 61.66113198754067 24.535627628154643 H 0.0 **** 0.06
11868 H 94.57222121267822 60.97226790848144 26.132907167138 H 0.0 **** 0.06
11869 H 96.25443603264455 61.37599340364861 25.713865566315597 H 0.0 **** 0.06
11870 H 95.44798316405922 59.99782695909977 24.926617886842685 H 0.0 **** 0.06
11871 C 108.97359065381754 64.0687314122844 118.25495962750406 C 0.0 **** -0.24
11872 H 109.2152674025148 63.0485237167984 117.95363296364533 H 0.0 **** 0.06
11873 H 107.97515836201187 64.09120637815617 118.69219059262403 H 0.0 **** 0.06
11874 H 109.00324071626487 64.72082103636457 117.38215664415745 H 0.0 **** 0.06
11875 H 109.701112754386 64.41150891062722 118.99058740961522 H 0.0 **** 0.06
11876 C 126.21436952214924 10.74706275031156 123.14303920845275 C 0.0 **** -0.24
11877 H 125.61886234070988 10.778066751570115 124.05507592816423 H 0.0 **** 0.06
11878 H 127.26994742641256 10.656946095317458 123.40030824906373 H 0.0 **** 0.06
11879 H 126.05616262022488 11.6648188886515 122.57469827977417 H 0.0 **** 0.06
11880 H 125.91241089081132 9.89026229937939 122.5408116537212 H 0.0 **** 0.06
11881 C 81.28712761228984 15.093919152651601 104.36646733912445 C 0.0 **** -0.24
11882 H 82.27435858809083 15.526419758567272 104.52644624337185 H 0.0 **** 0.06
11883 H 81.1999644583241 14.167270934539474 104.93394045343742 H 0.0 **** 0.06
11884 H 81.1494277216027 14.883676921239932 103.30562190876793 H 0.0 **** 0.06
11885 H 80.52389139593753 15.796811345545656 104.69980363540277 H 0.0 **** 0.06
11886 C 31.932992887012198 46.449834305199715 32.29018604266355 C 0.0 **** -0.24
11887 H 32.45447822123506 46.79158422042525 33.184676477644174 H 0.0 **** 0.06
11888 H 32.6114968113677 46.48583049046715 31.437708609506117 H 0.0 **** 0.06
11889 H 31.075723757042766 47.095940405054534 32.100553190413315 H 0.0 **** 0.06
11890 H 31.590542528352742 45.42607774215759 32.44002361927138 H 0.0 **** 0.06
11891 C 120.76514882229924 81.35976691466787 61.5463251370346 C 0.0 **** -0.24
11892 H 120.2130223361711 80.41986547588226 61.5263572568752 H 0.0 **** 0.06
11893 H 120.92755684968898 81.66364376662938 62.579799129121724 H 0.0 **** 0.06
11894 H 120.19329913769349 82.12832029043325 61.026004348111684 H 0.0 **** 0.06
11895 H 121.72680361688532 81.22631327701183 61.05110575942132 H 0.0 **** 0.06
11896 C 117.32278605859065 86.09048025905894 134.22071656708 C 0.0 **** -0.24
11897 H 117.0056638914246 86.51496518998424 133.26862513448629 H 0.0 **** 0.06
11898 H 118.33719923950883 85.70162713720978 134.12522694410612 H 0.0 **** 0.06
11899 H 116.64790915040706 85.28116382084833 134.50151752691218 H 0.0 **** 0.06
11900 H 117.3012445784153 86.86349933107678 134.98883669926533 H 0.0 **** 0.06
11901 C 107.58133954142201 35.80444035705494 56.56918294977433 C 0.0 **** -0.24
11902 H 107.24665281707576 35.086074340225906 57.31869159164384 H 0.0 **** 0.06
11903 H 107.61355646545398 35.320495732414386 55.59289521313599 H 0.0 **** 0.06
11904 H 108.57684914764482 36.16391799063476 56.8311840071396 H 0.0 **** 0.06
11905 H 106.88840858259205 36.64520798419183 56.536739999739495 H 0.0 **** 0.06
11906 C 57.548006375371756 118.12914725898594 83.04993081485807 C 0.0 **** -0.24
11907 H 56.47732702803921 118.31516869120634 83.13209410086542 H 0.0 **** 0.06
11908 H 57.82804734836222 117.3173595857204 83.72158914275745 H 0.0 **** 0.06
11909 H 58.09497207995413 119.03102266710971 83.32201583387042 H 0.0 **** 0.06
11910 H 57.79039692286982 117.85244143308296 82.02404010192329 H 0.0 **** 0.06
11911 C 109.68481991244994 126.13464387734075 112.70829917436251 C 0.0 **** -0.24
11912 H 110.75320474824142 125.92801366182778 112.77014456434401 H 0.0 **** 0.06
11913 H 109.49837547449235 126.8447873943627 111.9015967516008 H 0.0 **** 0.06
11914 H 109.34279194738488 126.55883455243799 113.65187490788674 H 0.0 **** 0.06
11915 H 109.14634741500345 125.20864602336553 112.50945412660923 H 0.0 **** 0.06
11916 C 69.26914711365683 66.95038311222794 48.64147460747199 C 0.0 **** -0.24
11917 H 68.79499318784926 67.93029007525956 48.70109409319116 H 0.0 **** 0.06
11918 H 70.35153629594001 67.06698946905635 48.68517391827808 H 0.0 **** 0.06
11919 H 68.9929285481154 66.46943525490707 47.70288335154996 H 0.0 **** 0.06
11920 H 68.93586659030481 66.3341889461118 49.476660163911475 H 0.0 **** 0.06
11921 C 25.178283068300857 57.69124704279926 21.360101938410196 C 0.0 **** -0.24
11922 H 24.69345820698652 57.82719759817974 22.326864766219273 H 0.0 **** 0.06
11923 H 24.646855465387148 56.92778018719565 20.79164513200132 H 0.0 **** 0.06
11924 H 26.210714201945223 57.37648449606735 21.513690926932156 H 0.0 **** 0.06
11925 H 25.161942704483863 58.63215875664142 20.809969039070523 H 0.0 **** 0.06
11926 C 3.75339298557455 55.82074278338236 67.95845698607042 C 0.0 **** -0.24
11927 H 4.021539339337377 54.83081758861536 67.58819391362633 H 0.0 **** 0.06
11928 H 2.8863818194913016 56.19091466659438 67.41065728738997 H 0.0 **** 0.06
11929 H 4.592308895185269 56.501600132987235 67.81657887320729 H 0.0 **** 0.06
11930 H 3.5115073908930263 55.75712557865158 69.01992075177075 H 0.0 **** 0.06
11931 C 124.00953526693036 23.493391273209767 21.397654090531546 C 0.0 **** -0.24
11932 H 123.50446848751395 22.71446664509159 21.969290387674732 H 0.0 **** 0.06
11933 H 125.04554074796492 23.571521747389653 21.728914384623067 H 0.0 **** 0.06
11934 H 123.50371796133037 24.445011204710966 21.555214668238364 H 0.0 **** 0.06
11935 H 123.98522779294296 23.239138688532847 20.33796836597446 H 0.0 **** 0.06
11936 C 85.62329780214338 55.035939747349246 108.54028126174072 C 0.0 **** -0.24
11937 H 85.37876544756625 54.146266036102716 109.12085743243877 H 0.0 **** 0.06
11938 H 84.78313907099563 55.28923576215752 107.89331099960775 H 0.0 **** 0.06
11939 H 86.50571708153807 54.8413136127072 107.93125341750815 H 0.0 **** 0.06
11940 H 85.82502358112946 55.86695243002072 109.21700775422255 H 0.0 **** 0.06
11941 C 18.30161200150505 130.433365761997 33.4455731034644 C 0.0 **** -0.24
11942 H 18.476968101026657 130.2748599372344 34.509660132877514 H 0.0 **** 0.06
11943 H 19.192456705844478 130.1478816788005 32.88489879889113 H 0.0 **** 0.06
11944 H 18.081433709757306 131.48551322577853 33.26702265584112 H 0.0 **** 0.06
11945 H 17.45820085841075 129.82490599646877 33.122156453537514 H 0.0 **** 0.06
11946 C 25.701029109627825 24.42761029972783 37.84742472092077 C 0.0 **** -0.24
11947 H 25.860666522410327 23.572730227722275 37.18992335636331 H 0.0 **** 0.06
11948 H 24.633160011645145 24.548619122019602 38.03086828504766 H 0.0 **** 0.06
11949 H 26.094228915868882 25.32713521332795 37.37445656787341 H 0.0 **** 0.06
11950 H 26.21681809228744 24.259232902916438 38.79303344597503 H 0.0 **** 0.06
11951 C 26.271633748650444 0.7239244544542203 10.422075260541096 C 0.0 **** -0.24
11952 H 26.821710110433642 1.4057907339864073 11.070987009943074 H 0.0 **** 0.06
11953 H 25.601926928333683 1.296849759448719 9.779017306532435 H 0.0 **** 0.06
11954 H 25.68864177365964 0.03376540716175214 11.031497023217327 H 0.0 **** 0.06
11955 H 26.97395106701262 0.16242967106416017 9.807048437304509 H 0.0 **** 0.06
11956 C 108.09091845093451 66.70334422617563 98.28120627298095 C 0.0 **** -0.24
11957 H 107.81054056880922 67.22489155242354 97.3658234501976 H 0.0 **** 0.06
11958 H 109.0471351106327 66.20176583738692 98.13566990101825 H 0.0 **** 0.06
11959 H 107.32703634382054 65.96512949978484 98.5268019530608 H 0.0 **** 0.06
11960 H 108.1767930594931 67.4221132693657 99.09637784682576 H 0.0 **** 0.06
11961 C 102.06571284246758 58.07800713297823 10.450401017900845 C 0.0 **** -0.24
11962 H 101.6939751612988 57.21825044286605 11.008073506384221 H 0.0 **** 0.06
11963 H 102.5991407248743 58.745807657932815 11.127174417626293 H 0.0 **** 0.06
11964 H 101.22645407914692 58.61011712479201 10.001988519946394 H 0.0 **** 0.06
11965 H 102.74178422391401 57.73804338337689 9.666960451970112 H 0.0 **** 0.06
11966 C 55.899343651763346 44.73123897099222 37.176057718414455 C 0.0 **** -0.24
11967 H 55.5655500042314 44.62886830485496 38.20904520586302 H 0.0 **** 0.06
11968 H 55.14392220498274 44.317860447479234 36.50843682531993 H 0.0 **** 0.06
11969 H 56.837208483335644 44.19268914156223 37.04267980060638 H 0.0 **** 0.06
11970 H 56.050605382096464 45.78639550103355 36.9461323083799 H 0.0 **** 0.06
11971 C 54.504487733253 132.53360286743754 77.6983841613064 C 0.0 **** -0.24
11972 H 54.28743779278355 131.66853576021487 78.32552076149834 H 0.0 **** 0.06
11973 H 53.78079073999356 132.58269017417612 76.88528077170311 H 0.0 **** 0.06
11974 H 55.50950152677552 132.43904447405794 77.28594374960703 H 0.0 **** 0.06
11975 H 54.44134207052912 133.44100356500036 78.29816963546548 H 0.0 **** 0.06
11976 C 135.42514557835406 78.07894585203326 38.1284519071763 C 0.0 **** -0.24
11977 H 135.93905311084023 78.16787633001657 39.08562194628745 H 0.0 **** 0.06
11978 H 136.0369120939664 78.52744769638376 37.344910621974556 H 0.0 **** 0.06
11979 H 134.46722462707544 78.59605342990841 38.1811894797646 H 0.0 **** 0.06
11980 H 135.2580367127214 77.0255392526375 37.90153723030072 H 0.0 **** 0.06
11981 C 44.33520522392993 75.70360899020856 14.496581717894372 C 0.0 **** -0.24
11982 H 43.56924212030604 75.40924005873532 15.214887762812168 H 0.0 **** 0.06
11983 H 45.319375286170974 75.45070187113105 14.890971549483169 H 0.0 **** 0.06
11984 H 44.277628156518084 76.77877531003561 14.325533920939165 H 0.0 **** 0.06
11985 H 44.173748155674296 75.17769556718984 13.556120287019326 H 0.0 **** 0.06
11986 C 9.926471545397987 48.96488711583464 113.80064909429456 C 0.0 **** -0.24
11987 H 9.421372483556752 49.93111301841367 113.80855707550788 H 0.0 **** 0.06
11988 H 9.775734628555995 48.48415962236106 112.83402169721577 H 0.0 **** 0.06
11989 H 9.516043672847047 48.33367586757697 114.58815168735137 H 0.0 **** 0.06
11990 H 10.993686227601131 49.11176130816068 113.97100144135786 H 0.0 **** 0.06
11991 C 13.753546024674677 99.62769465669061 40.69169458535178 C 0.0 **** -0.24
11992 H 13.635191899112385 99.05937373035215 41.61388743753194 H 0.0 **** 0.06
11993 H 13.314545193217413 100.61738323540436 40.81682986392545 H 0.0 **** 0.06
11994 H 13.251255106854487 99.10681488252993 39.8762908971148 H 0.0 **** 0.06
11995 H 14.814973284412318 99.72674503577048 40.461040455100594 H 0.0 **** 0.06
11996 C 40.200057701159324 19.75903975303318 87.4486716703895 C 0.0 **** -0.24
11997 H 39.99246908800084 19.52223673151652 86.40471601965783 H 0.0 **** 0.06
11998 H 41.27200838849161 19.904555062781768 87.58092545595451 H 0.0 **** 0.06
11999 H 39.86271677633856 18.938273700457955 88.08152650578052 H 0.0 **** 0.06
12000 H 39.67147404518039 20.67159375634882 87.72599930365777 H 0.0 **** 0.06
12001 C 67.67496548917222 25.112188557864044 33.62108466276112 C 0.0 **** -0.24
12002 H 67.9680834877156 25.070341895438418 34.6697126806833 H 0.0 **** 0.06
12003 H 66.58735313185463 25.15477854526324 33.549708237183594 H 0.0 **** 0.06
12004 H 68.0395101747518 24.22385351000605 33.10601181247009 H 0.0 **** 0.06
12005 H 68.10450605893254 26.002138080438755 33.15942907754907 H 0.0 **** 0.06
12006 C 112.43058818462725 56.54774389162296 111.3022556182959 C 0.0 **** -0.24
12007 H 112.7677110144918 55.91946768970769 112.12665010469934 H 0.0 **** 0.06
12008 H 112.92878157112943 57.51616669623739 111.35857377147826 H 0.0 **** 0.06
12009 H 111.35262428323199 56.68934802805069 111.37014590596297 H 0.0 **** 0.06
12010 H 112.67565486181343 56.066975954720135 110.355130186846 H 0.0 **** 0.06
12011 C 120.81928114107187 33.88839067314706 102.78830117003825 C 0.0 **** -0.24
12012 H 119.79362623392021 34.0369103145222 103.1254539108981 H 0.0 **** 0.06
12013 H 121.33579077654606 33.221858575179766 103.4784524477296 H 0.0 **** 0.06
12014 H 121.33339773970502 34.84962046697035 102.7578295517523 H 0.0 **** 0.06
12015 H 120.81393159050978 33.44734720442082 101.79183136370509 H 0.0 **** 0.06
12016 C 109.74716036593827 51.23275133525772 133.80203811402342 C 0.0 **** -0.24
12017 H 110.45480961977205 51.506796908813385 133.01950976027743 H 0.0 **** 0.06
12018 H 108.89202472043218 51.90825960819035 133.77125366985237 H 0.0 **** 0.06
12019 H 110.23427710335034 51.307616686365805 134.7743027534401 H 0.0 **** 0.06
12020 H 109.40857679918065 50.209697495536545 133.64328674864313 H 0.0 **** 0.06
12021 C 13.817908237622163 93.15238127903395 26.555919822556604 C 0.0 **** -0.24
12022 H 14.856364774482444 93.47869576822602 26.61718124036574 H 0.0 **** 0.06
12023 H 13.399102583360559 93.4555306013278 25.59577482102908 H 0.0 **** 0.06
12024 H 13.245898503168931 93.60940122124973 27.363323495756532 H 0.0 **** 0.06
12025 H 13.771774544008878 92.06712689876608 26.646934537223927 H 0.0 **** 0.06
12026 C 69.52544221159725 106.37618277646641 51.91840179657822 C 0.0 **** -0.24
12027 H 70.05546407023161 107.32801707224161 51.884915062054176 H 0.0 **** 0.06
12028 H 68.51504008359107 106.53615691910039 52.295088521739444 H 0.0 **** 0.06
12029 H 70.05451046559457 105.68929311344937 52.578661151226925 H 0.0 **** 0.06
12030 H 69.47751276169498 105.95123960975931 50.915593662842895 H 0.0 **** 0.06
12031 C 118.63721910475414 29.008652901334813 59.05032873698775 C 0.0 **** -0.24
12032 H 119.36528768775736 29.686137055725055 58.605189006279716 H 0.0 **** 0.06
12033 H 117.63974169817743 29.255521382009476 58.685276839505605 H 0.0 **** 0.06
12034 H 118.66286327062858 29.10964686099004 60.13519676791097 H 0.0 **** 0.06
12035 H 118.88124497032118 27.981936793091393 58.7754150667846 H 0.0 **** 0.06
12036 C 25.594363762308802 129.72663780356393 55.69308304060888 C 0.0 **** -0.24
12037 H 24.646126525754596 129.6162293028269 56.21875323010511 H 0.0 **** 0.06
12038 H 26.33896756316301 129.07105808171818 56.145442968663644 H 0.0 **** 0.06
12039 H 25.930568922021934 130.7608626365105 55.76279042958657 H 0.0 **** 0.06
12040 H 25.46124983729527 129.457121434036 54.64508413926603 H 0.0 **** 0.06
12041 C 91.8291553004052 27.17335299396705 56.12613197631215 C 0.0 **** -0.24
12042 H 91.75927803438219 26.311742640093037 56.78885344969976 H 0.0 **** 0.06
12043 H 91.12583791129785 27.940273645247196 56.45086946223199 H 0.0 **** 0.06
12044 H 91.59085041428581 26.86788919696606 55.1076450201502 H 0.0 **** 0.06
12045 H 92.84256596468964 27.573414178648456 56.156577502489995 H 0.0 **** 0.06
12046 C 130.07955099899482 68.32529753229556 55.16496348151313 C 0.0 **** -0.24
12047 H 130.79450872726255 68.75365109387934 54.462649644718965 H 0.0 **** 0.06
12048 H 130.56124566446198 68.1807830456803 56.131668629551484 H 0.0 **** 0.06
12049 H 129.7303347891911 67.36463463527605 54.78544808798739 H 0.0 **** 0.06
12050 H 129.23120037679047 69.00080037564072 55.278238484028236 H 0.0 **** 0.06
12051 C 81.13661386453757 47.41637590496282 126.68324530572062 C 0.0 **** -0.24
12052 H 81.24570343211715 48.43252568251205 127.06011276644429 H 0.0 **** 0.06
12053 H 81.97014544298511 46.807331002351134 127.03285861876282 H 0.0 **** 0.06
12054 H 81.1311501329601 47.432439861806245 125.59338560932301 H 0.0 **** 0.06
12055 H 80.19924478930861 46.99276646363569 127.04496254186513 H 0.0 **** 0.06
12056 C 9.786198901569701 127.66575749449675 117.50913903198585 C 0.0 **** -0.24
12057 H 9.966140477369969 128.72325890471404 117.70144305807452 H 0.0 **** 0.06
12058 H 8.839618212253061 127.54821059753294 116.98194194168221 H 0.0 **** 0.06
12059 H 9.744332419753214 127.12675550130183 118.4563244270851 H 0.0 **** 0.06
12060 H 10.594497693128357 127.26474485230274 116.8978232582549 H 0.0 **** 0.06
12061 C 86.44627007440536 11.324759777745754 110.88118801747231 C 0.0 **** -0.24
12062 H 86.84852793983788 11.750191014053865 109.96196991545091 H 0.0 **** 0.06
12063 H 86.54103767153913 12.05161655764498 111.68939003222337 H 0.0 **** 0.06
12064 H 87.00129960084672 10.421954652120295 111.13682684203536 H 0.0 **** 0.06
12065 H 85.39443915340291 11.076882375424823 110.73595508347879 H 0.0 **** 0.06
12066 C 88.02687788093598 70.34436548612581 64.05883208236878 C 0.0 **** -0.24
12067 H 88.7842772265046 70.48849221692751 64.8299837048994 H 0.0 **** 0.06
12068 H 87.44783786128323 69.44831345189937 64.28202586646427 H 0.0 **** 0.06
12069 H 88.51157953814555 70.23268620541106 63.089310514725184 H 0.0 **** 0.06
12070 H 87.36383390054496 71.20920852698252 64.03587000803253 H 0.0 **** 0.06
12071 C 90.09099430685657 43.138013630890384 27.933758766475677 C 0.0 **** -0.24
12072 H 89.85323902504902 44.01175186343605 28.53917921014923 H 0.0 **** 0.06
12073 H 89.18015300048268 42.57086983147835 27.740561689064094 H 0.0 **** 0.06
12074 H 90.80554143125666 42.50992039310199 28.466425065759978 H 0.0 **** 0.06
12075 H 90.52626185468492 43.459845795909104 26.98677019164083 H 0.0 **** 0.06
12076 C 47.32915520188337 1.0246779168454054 15.10308977149657 C 0.0 **** -0.24
12077 H 47.57337679038481 2.0608773308681982 15.335796935753478 H 0.0 **** 0.06
12078 H 46.79231095871526 0.9821767741668488 14.154508171068699 H 0.0 **** 0.06
12079 H 46.70434082324215 0.611982636005596 15.89466580840974 H 0.0 **** 0.06
12080 H 48.248607047017785 0.44367119852816117 15.025995045675245 H 0.0 **** 0.06
12081 C 84.3816814792669 39.069913017065915 8.593769918975937 C 0.0 **** -0.24
12082 H 84.32415971211398 38.38825043720459 7.745275118325196 H 0.0 **** 0.06
12083 H 84.30664098469197 38.50123610766565 9.52217699098901 H 0.0 **** 0.06
12084 H 83.56176830149032 39.787056525238455 8.54036868520339 H 0.0 **** 0.06
12085 H 85.33250965047613 39.60224396893227 8.56849922945824 H 0.0 **** 0.06
12086 C 27.352645525651212 74.81971099309624 62.157545580748405 C 0.0 **** -0.24
12087 H 27.016227803921595 75.80482333377961 62.481745956488965 H 0.0 **** 0.06
12088 H 26.521504664700927 74.28329746684437 61.69994482450795 H 0.0 **** 0.06
12089 H 27.717869397717322 74.25873935816708 63.01802418501558 H 0.0 **** 0.06
12090 H 28.156984609807807 74.93277708959272 61.429303966260136 H 0.0 **** 0.06
12091 C 95.42899804023025 5.820364258809519 13.275352958718809 C 0.0 **** -0.24
12092 H 95.96968991028467 6.609972388300633 13.79724602239979 H 0.0 **** 0.06
12093 H 94.51106167925042 6.228271914146603 12.85057854183195 H 0.0 **** 0.06
12094 H 95.18179969808 5.0246942289402625 13.977551083852006 H 0.0 **** 0.06
12095 H 96.05258156304612 5.419635394041848 12.475916876812903 H 0.0 **** 0.06
12096 C 51.11953837142801 98.32555482864632 115.16032970238786 C 0.0 **** -0.24
12097 H 51.11728096221026 97.6770597370259 116.03585984797144 H 0.0 **** 0.06
12098 H 50.17949504054337 98.87481555688717 115.11196409433501 H 0.0 **** 0.06
12099 H 51.232591219071026 97.71952506138973 114.2608353528131 H 0.0 **** 0.06
12100 H 51.94852228296446 99.02883697128345 115.23124448237425 H 0.0 **** 0.06
12101 C 89.73394406962619 37.94776232285379 96.24811284856247 C 0.0 **** -0.24
12102 H 89.5189766746937 38.70578962105716 97.00080113832882 H 0.0 **** 0.06
12103 H 89.4832887570771 38.33620804455416 95.26016802523822 H 0.0 **** 0.06
12104 H 89.1397590728994 37.056299071115156 96.449697907683 H 0.0 **** 0.06
12105 H 90.79314892626859 37.694697799124064 96.2808608347045 H 0.0 **** 0.06
12106 C 98.51566667533169 57.33268525862003 117.96544553382066 C 0.0 **** -0.24
12107 H 99.29085422278632 57.39264828198252 118.72931709351754 H 0.0 **** 0.06
12108 H 98.10747518435636 56.320864348382685 117.94047856356596 H 0.0 **** 0.06
12109 H 98.94408187908417 57.57576414802763 116.99230515375194 H 0.0 **** 0.06
12110 H 97.71999150336822 58.04021902580001 118.19906500892492 H 0.0 **** 0.06
12111 C 16.365552519978507 7.959591930369616 33.57838771213067 C 0.0 **** -0.24
12112 H 17.116767098572666 7.236945995281907 33.25876355948374 H 0.0 **** 0.06
12113 H 16.7133150067678 8.968484065614458 33.3507320704873 H 0.0 **** 0.06
12114 H 16.202630434503533 7.865173635348455 34.651751404786594 H 0.0 **** 0.06
12115 H 15.431522356601477 7.769336225780588 33.05074537846894 H 0.0 **** 0.06
12116 C 94.01946485310336 58.492411003729515 68.23309959869795 C 0.0 **** -0.24
12117 H 93.40645023860407 57.91149888636399 68.92213896795441 H 0.0 **** 0.06
12118 H 93.57483855929235 58.46376006664494 67.23817464786573 H 0.0 **** 0.06
12119 H 95.02311934627053 58.06909304450264 68.19586229838042 H 0.0 **** 0.06
12120 H 94.0733829533944 59.524596654665345 68.57745207256939 H 0.0 **** 0.06
12121 C 102.49734876142864 91.71537315661703 16.613057957860704 C 0.0 **** -0.24
12122 H 101.80323949896037 92.55408386597338 16.579776468738203 H 0.0 **** 0.06
12123 H 103.44028567701433 92.00579020004238 16.148504375769505 H 0.0 **** 0.06
12124 H 102.0712803230868 90.86894024557857 16.073660967455375 H 0.0 **** 0.06
12125 H 102.67545703944839 91.43277412540351 17.650778202784636 H 0.0 **** 0.06
12126 C 102.57055415140091 115.61402617140516 46.7237687097994 C 0.0 **** -0.24
12127 H 102.172411369678 115.50948004890631 45.71459900912561 H 0.0 **** 0.06
12128 H 102.6765718948105 116.67228771287569 46.96488873197927 H 0.0 **** 0.06
12129 H 103.54467204093355 115.12853906751582 46.7812635977142 H 0.0 **** 0.06
12130 H 101.88865319014262 115.1463473565733 47.43349304745607 H 0.0 **** 0.06
12131 C 64.11013478185524 76.10752066844856 109.33162307942801 C 0.0 **** -0.24
12132 H 63.567008981435436 76.56026580580402 108.50318950800609 H 0.0 **** 0.06
12133 H 63.42377553370463 75.92508452387256 110.16013211526206 H 0.0 **** 0.06
12134 H 64.90214895473082 76.7815133017125 109.6579979264335 H 0.0 **** 0.06
12135 H 64.54748826271504 75.16317650769531 109.00740539896586 H 0.0 **** 0.06
12136 C 95.01208836565365 81.05667718816274 96.98056193623341 C 0.0 **** -0.24
12137 H 94.71051663644323 81.55216051219848 97.90401192452745 H 0.0 **** 0.06
12138 H 94.12580130094722 80.7309054043621 96.4367761235305 H 0.0 **** 0.06
12139 H 95.63179988860543 80.192256204529 97.21909716659889 H 0.0 **** 0.06
12140 H 95.58169251395168 81.75300990027333 96.36442236625156 H 0.0 **** 0.06
12141 C 4.788296857255588 129.36267648607992 89.3681823861042 C 0.0 **** -0.24
12142 H 4.324100202924139 128.377472207837 89.41053859825749 H 0.0 **** 0.06
12143 H 5.868049469528351 129.25173672403497 89.26920905053191 H 0.0 **** 0.06
12144 H 4.560835930949313 129.9105377942031 90.28288594339773 H 0.0 **** 0.06
12145 H 4.397845688678331 129.91064113292876 88.51068562885197 H 0.0 **** 0.06
12146 C 114.37999432864481 24.45101347185843 31.611935473732785 C 0.0 **** -0.24
12147 H 115.11313470079781 25.069345887590885 32.129865275184514 H 0.0 **** 0.06
12148 H 113.67654406256625 24.03812788656171 32.335653183860096 H 0.0 **** 0.06
12149 H 114.89036051839614 23.63828672671127 31.095305390615053 H 0.0 **** 0.06
12150 H 113.83928498151175 25.060121394574537 30.88643628172894 H 0.0 **** 0.06
12151 C 56.46802802021014 130.5679972124416 50.169950698947645 C 0.0 **** -0.24
12152 H 56.59817847317487 129.49758035735525 50.33255059830026 H 0.0 **** 0.06
12153 H 55.81644780507929 130.97595958859068 50.94354235251015 H 0.0 **** 0.06
12154 H 56.01915343408422 130.7344238314679 49.19074804136034 H 0.0 **** 0.06
12155 H 57.43864777780999 131.06243909686162 50.21413882702501 H 0.0 **** 0.06
12156 C 14.716025184569105 122.48871258804326 101.65227416037868 C 0.0 **** -0.24
12157 H 14.351894928488377 123.5128588077595 101.72760472880651 H 0.0 **** 0.06
12158 H 15.802473108132915 122.49589301733934 101.55447078637036 H 0.0 **** 0.06
12159 H 14.275734274279728 122.00967231435519 100.77769803575876 H 0.0 **** 0.06
12160 H 14.43606663673188 121.93725651064292 102.54950570259791 H 0.0 **** 0.06
12161 C 27.226191673056633 112.76569764671439 105.56923890897639 C 0.0 **** -0.24
12162 H 26.457378590970663 112.27952551567762 106.16923818795952 H 0.0 **** 0.06
12163 H 26.79235446636426 113.6177454220194 105.04477634383645 H 0.0 **** 0.06
12164 H 27.622573013880128 112.0558530628413 104.8430133413453 H 0.0 **** 0.06
12165 H 28.031379705451258 113.10905886328459 106.21781528262373 H 0.0 **** 0.06
12166 C 66.21513725009459 64.34085586374596 111.55213126080977 C 0.0 **** -0.24
12167 H 67.17959465861826 63.89816582539713 111.8016919032656 H 0.0 **** 0.06
12168 H 65.53574315380938 64.23332058948401 112.3979396956714 H 0.0 **** 0.06
12169 H 65.79719269670625 63.83490779303615 110.68206692871297 H 0.0 **** 0.06
12170 H 66.34965334226379 65.39954414474111 111.32688100365954 H 0.0 **** 0.06
12171 C 77.44547381499365 2.2693196784636314 32.76374800075985 C 0.0 **** -0.24
12172 H 78.35507615482447 1.8374274114849243 33.18263912506467 H 0.0 **** 0.06
12173 H 77.3844780186065 2.0278204182534125 31.702686893996457 H 0.0 **** 0.06
12174 H 77.46704590742297 3.351222975183873 32.89082245949973 H 0.0 **** 0.06
12175 H 76.57784294223802 1.8603607658073713 33.280919452207144 H 0.0 **** 0.06
12176 C 81.70331112197594 105.15263376504399 105.58737425991175 C 0.0 **** -0.24
12177 H 82.14532500979564 106.0764876343695 105.96038070617159 H 0.0 **** 0.06
12178 H 82.49443486516809 104.46880170973193 105.28078662648767 H 0.0 **** 0.06
12179 H 81.0630617176528 105.37521978394894 104.73357086208958 H 0.0 **** 0.06
12180 H 81.1093019183567 104.69035260836309 106.37638269179459 H 0.0 **** 0.06
12181 C 99.25115588902611 59.897268523730474 88.45082037810533 C 0.0 **** -0.24
12182 H 100.05293931775586 59.71122850056102 89.16519947302632 H 0.0 **** 0.06
12183 H 99.0473294462094 58.98519432380769 87.88819476231492 H 0.0 **** 0.06
12184 H 99.55276884279948 60.688349186984325 87.7645601832628 H 0.0 **** 0.06
12185 H 98.35246445883138 60.2033603979837 88.98591150978609 H 0.0 **** 0.06
12186 C 135.65427458108184 74.40034903006205 13.571561173432954 C 0.0 **** -0.24
12187 H 135.85933132985616 74.17227349272702 14.618154409677082 H 0.0 **** 0.06
12188 H 134.97121466372016 75.24789832207318 13.512718830722704 H 0.0 **** 0.06
12189 H 135.2002449044665 73.5331406650605 13.09275668734584 H 0.0 **** 0.06
12190 H 136.58732814916198 74.64911521059304 13.065760325376495 H 0.0 **** 0.06
12191 C 103.8135083101039 86.22350326722415 58.9582448814587 C 0.0 **** -0.24
12192 H 104.85181383899543 86.34145915915009 58.64825601508217 H 0.0 **** 0.06
12193 H 103.62713671536127 85.1806738737471 59.21226945551189 H 0.0 **** 0.06
12194 H 103.15561809800936 86.52304640916988 58.1423708463699 H 0.0 **** 0.06
12195 H 103.62109048131961 86.85018116525661 59.82934778858605 H 0.0 **** 0.06
12196 C 14.495093547399549 81.10914982039797 53.84918005590717 C 0.0 **** -0.24
12197 H 15.563756795284654 81.26829088333176 53.98987121741881 H 0.0 **** 0.06
12198 H 14.08442217179983 80.6049456898232 54.72412936417274 H 0.0 **** 0.06
12199 H 14.333361797993781 80.49083120644755 52.96545947983067 H 0.0 **** 0.06
12200 H 13.999386619718074 82.0699595072474 53.71581820685378 H 0.0 **** 0.06
12201 C 86.64746680617384 39.63074248169073 133.587646916419 C 0.0 **** -0.24
12202 H 85.6479986204705 40.03109327395228 133.7592210297448 H 0.0 **** 0.06
12203 H 87.34271109560461 40.45305656867788 133.41508087181526 H 0.0 **** 0.06
12204 H 86.63211075979689 38.97747977572405 132.71467146675673 H 0.0 **** 0.06
12205 H 86.96612488037943 39.06170239958789 134.46175248164366 H 0.0 **** 0.06
12206 C 88.76165778224191 9.145250528280183 71.65673636401021 C 0.0 **** -0.24
12207 H 88.19824203738207 8.451198154909253 72.2808694351196 H 0.0 **** 0.06
12208 H 88.68268920378347 10.151437110044597 72.07047138541094 H 0.0 **** 0.06
12209 H 88.35653692998272 9.135376976695436 70.64548633967877 H 0.0 **** 0.06
12210 H 89.8086590741868 8.843733293026151 71.63216613796624 H 0.0 **** 0.06
12211 C 113.32685902130689 100.97165425089027 120.79208186701963 C 0.0 **** -0.24
12212 H 113.4697345160817 101.75423009489838 121.53710649334846 H 0.0 **** 0.06
12213 H 112.33019781705221 100.54395849520552 120.902321880664 H 0.0 **** 0.06
12214 H 114.0751436124745 100.19230258094197 120.93712399459787 H 0.0 **** 0.06
12215 H 113.43278666458224 101.39606757599951 119.79457064116988 H 0.0 **** 0.06
12216 C 114.33134137554933 16.056316557807293 71.83079230345737 C 0.0 **** -0.24
12217 H 115.27150942977227 16.24510777117183 71.31301054563235 H 0.0 **** 0.06
12218 H 114.15621016309893 16.843717616501408 72.56350825603643 H 0.0 **** 0.06
12219 H 114.3830373734207 15.09250670032958 72.33738301643494 H 0.0 **** 0.06
12220 H 113.51452471792959 16.043081817189034 71.1081419591147 H 0.0 **** 0.06
12221 C 72.82209876512786 102.3736815789668 73.66750082363012 C 0.0 **** -0.24
12222 H 72.6822604075036 101.68296416783011 72.83572214392444 H 0.0 **** 0.06
12223 H 71.94021550248976 102.35284653597762 74.30821519062945 H 0.0 **** 0.06
12224 H 72.96709691658494 103.38280027100899 73.2815318180859 H 0.0 **** 0.06
12225 H 73.69771281050946 102.07581750413357 74.2437091779237 H 0.0 **** 0.06
12226 C 123.43020932607504 42.286153000726664 134.99641520058867 C 0.0 **** -0.24
12227 H 123.26752268439424 41.4882609845633 134.2717708368451 H 0.0 **** 0.06
12228 H 124.00671958339649 41.90146234628462 135.83755257007275 H 0.0 **** 0.06
12229 H 122.46790246956272 42.65500900177138 135.35243888032105 H 0.0 **** 0.06
12230 H 123.97698929487495 43.100989773643654 134.52296751215147 H 0.0 **** 0.06
12231 C 74.19981021809572 73.92142455233568 22.332611074098878 C 0.0 **** -0.24
12232 H 73.42714267395564 73.24806163035038 21.959006481076415 H 0.0 **** 0.06
12233 H 74.9741545133668 73.34155310487807 22.835735432460723 H 0.0 **** 0.06
12234 H 73.75643212003378 74.62539352182898 23.037405831879 H 0.0 **** 0.06
12235 H 74.63852103184223 74.4686844155641 21.49810910435187 H 0.0 **** 0.06
12236 C 128.09374226858773 119.51345668657022 80.3054207223746 C 0.0 **** -0.24
12237 H 127.61182857959639 118.64489553005494 80.75403053698096 H 0.0 **** 0.06
12238 H 128.12606342406497 119.39098777897377 79.22219644624167 H 0.0 **** 0.06
12239 H 129.10916231385272 119.6054245284207 80.69119283300785 H 0.0 **** 0.06
12240 H 127.52757713432777 120.41060247149468 80.5531614786475 H 0.0 **** 0.06
12241 C 129.75883740136396 22.206421339578817 96.46931107195029 C 0.0 **** -0.24
12242 H 129.5700377476375 21.145314298343912 96.63570113828729 H 0.0 **** 0.06
12243 H 130.81687667311917 22.356929567859076 96.25650082458557 H 0.0 **** 0.06
12244 H 129.4828984867955 22.767437033256655 97.36246682105364 H 0.0 **** 0.06
12245 H 129.16387387911303 22.553084560292923 95.62422167364258 H 0.0 **** 0.06
12246 C 61.10437886227453 100.2227214491486 125.11623915782947 C 0.0 **** -0.24
12247 H 61.30429435887828 99.29686945765619 124.57640865824285 H 0.0 **** 0.06
12248 H 61.198982459843194 101.06810978876015 124.43502644733316 H 0.0 **** 0.06
12249 H 61.8217410032027 100.32920711319669 125.93080437134539 H 0.0 **** 0.06
12250 H 60.09357583051195 100.1948804969823 125.52395376788492 H 0.0 **** 0.06
12251 C 12.333697671876394 25.45185882949609 118.43217639390383 C 0.0 **** -0.24
12252 H 12.40162429689525 26.133741099689516 117.58435411422192 H 0.0 **** 0.06
12253 H 11.65832202688128 25.869965581198365 119.17981643296037 H 0.0 **** 0.06
12254 H 13.322685149204034 25.317187768463896 118.86976469236598 H 0.0 **** 0.06
12255 H 11.951185883327724 24.488536920834413 118.09450835568578 H 0.0 **** 0.06
12256 C 7.67435602445758 61.69509132368637 65.64787708169996 C 0.0 **** -0.24
12257 H 8.062766746663215 62.66980926541436 65.94353586876235 H 0.0 **** 0.06
12258 H 8.067757850926824 61.42898140090847 64.66676721208103 H 0.0 **** 0.06
12259 H 6.586236175471271 61.73536834949019 65.60416219720696 H 0.0 **** 0.06
12260 H 7.981230067993636 60.94566086354541 66.37821838566538 H 0.0 **** 0.06
12261 C 64.23135018311773 45.78118352815085 113.5122840967856 C 0.0 **** -0.24
12262 H 64.11071581345574 46.37987800842245 112.60934205059118 H 0.0 **** 0.06
12263 H 63.29755029123889 45.26229386589586 113.7310016928802 H 0.0 **** 0.06
12264 H 64.48936044779006 46.43166244268325 114.34846468937602 H 0.0 **** 0.06
12265 H 65.02672126501851 45.051320927484056 113.36163721250045 H 0.0 **** 0.06
12266 C 71.92267463848935 114.25492808043583 110.06253503559012 C 0.0 **** -0.24
12267 H 72.67266867992123 114.71572144824381 110.70567536864934 H 0.0 **** 0.06
12268 H 71.87927653772616 113.18524455389615 110.26411320059677 H 0.0 **** 0.06
12269 H 72.19196525679968 114.41824696429615 109.0182047974306 H 0.0 **** 0.06
12270 H 70.94902956136326 114.703075312512 110.26061679122807 H 0.0 **** 0.06
12271 C 58.07385420119098 95.9484257853385 92.93689363275112 C 0.0 **** -0.24
12272 H 57.26583685019803 95.22804269549232 93.0614215066731 H 0.0 **** 0.06
12273 H 58.75507234454621 95.87990225399223 93.7847564792894 H 0.0 **** 0.06
12274 H 57.65802174272797 96.95478014252119 92.88420253428495 H 0.0 **** 0.06
12275 H 58.61590355394003 95.73015485970718 92.01620236431359 H 0.0 **** 0.06
12276 C 12.596698658739513 132.39460216060655 52.02411505762211 C 0.0 **** -0.24
12277 H 12.753498072941454 133.05519012474755 52.87724961885249 H 0.0 **** 0.06
12278 H 12.633257125829857 131.35697901100897 52.35609509421141 H 0.0 **** 0.06
12279 H 13.376635391086381 132.56730255968588 51.282242867809316 H 0.0 **** 0.06
12280 H 11.62200450197804 132.60057394023244 51.581474117723815 H 0.0 **** 0.06
12281 C 56.46145490939222 123.80694288241196 118.37126737323771 C 0.0 **** -0.24
12282 H 57.04861707950458 124.51264897449455 118.9594413173021 H 0.0 **** 0.06
12283 H 57.13098950281217 123.18806487986603 117.77346679319459 H 0.0 **** 0.06
12284 H 55.78844039585151 124.35502655386809 117.71284368123304 H 0.0 **** 0.06
12285 H 55.879579444328584 123.1726824237379 119.04046293711201 H 0.0 **** 0.06
12286 C 56.26496748446782 115.87296545465045 49.23700179414746 C 0.0 **** -0.24
12287 H 56.974087345081955 116.30218552239131 48.530361758023375 H 0.0 **** 0.06
12288 H 56.795139189159684 115.55550419337413 50.135930299626764 H 0.0 **** 0.06
12289 H 55.774609043720176 115.01290926594424 48.78118274539544 H 0.0 **** 0.06
12290 H 55.51726950931911 116.62071034374384 49.50094377353177 H 0.0 **** 0.06
12291 C 136.66537943447395 124.14188366957913 37.68997654457263 C 0.0 **** -0.24
12292 H 135.73307348198375 124.67437911906325 37.503227389906186 H 0.0 **** 0.06
12293 H 136.83468393768416 124.07036743557421 38.76412711642561 H 0.0 **** 0.06
12294 H 137.49109871008278 124.68087678920864 37.22578031139105 H 0.0 **** 0.06
12295 H 136.6012949076598 123.13954353127733 37.26489355662869 H 0.0 **** 0.06
12296 C 84.78135124033332 98.81138744575063 44.62511481472149 C 0.0 **** -0.24
12297 H 83.94256339806913 98.72586963067747 45.31547753962216 H 0.0 **** 0.06
12298 H 84.66031740681848 99.70676767143595 44.0150802724744 H 0.0 **** 0.06
12299 H 84.81072318245941 97.93365461891142 43.97951320810187 H 0.0 **** 0.06
12300 H 85.71065934686575 98.87948844630564 45.18958598493845 H 0.0 **** 0.06
12301 C 77.72952345965797 51.99419556941035 14.450899908863597 C 0.0 **** -0.24
12302 H 77.41581147697617 51.482763630362456 13.540571807555466 H 0.0 **** 0.06
12303 H 77.66659595604051 51.30657184982789 15.294657480506586 H 0.0 **** 0.06
12304 H 77.07892945382692 52.849661165016926 14.629511400325569 H 0.0 **** 0.06
12305 H 78.75876460800298 52.33722561115826 14.3375721017876 H 0.0 **** 0.06
12306 C 70.52079939514338 131.40890340471427 115.14381453739412 C 0.0 **** -0.24
12307 H 70.63508090199434 131.47664148984586 116.22598429321567 H 0.0 **** 0.06
12308 H 69.8692409411408 132.21078810144465 114.79616444005418 H 0.0 **** 0.06
12309 H 70.0810421165337 130.4450792553298 114.88570478020739 H 0.0 **** 0.06
12310 H 71.497663326126 131.50178947870467 114.66851870147116 H 0.0 **** 0.06
12311 C 17.729430706779027 97.1668677647468 20.996414449925737 C 0.0 **** -0.24
12312 H 17.80012303541335 97.77238745876505 20.092675234064323 H 0.0 **** 0.06
12313 H 18.701422649750356 97.13491988203376 21.488738591792597 H 0.0 **** 0.06
12314 H 17.421863601010045 96.1545875103505 20.732330622836635 H 0.0 **** 0.06
12315 H 16.99339927975805 97.60573716491075 21.67084643395512 H 0.0 **** 0.06
12316 C 49.682795608805506 30.60573742468361 24.625211821425353 C 0.0 **** -0.24
12317 H 49.52201194024367 30.637781165196202 23.547522681991012 H 0.0 **** 0.06
12318 H 49.90102449237038 31.609606081010114 24.990413090582734 H 0.0 **** 0.06
12319 H 50.523705457691065 29.947766896672462 24.847406631138767 H 0.0 **** 0.06
12320 H 48.786630118704124 30.22747235036914 25.115186233943064 H 0.0 **** 0.06
12321 C 6.937197739531648 0.9405800369937651 49.161491968832834 C 0.0 **** -0.24
12322 H 6.937918693711936 2.008768107123103 48.944958414552744 H 0.0 **** 0.06
12323 H 6.16399947898601 0.4508019515525916 48.56902849494331 H 0.0 **** 0.06
12324 H 6.736607663136947 0.7851962213247816 50.22130729667785 H 0.0 **** 0.06
12325 H 7.910265921249934 0.51854118008157 48.910514733602184 H 0.0 **** 0.06
12326 C 60.351927709827976 44.162877917187984 59.07130676500822 C 0.0 **** -0.24
12327 H 60.644259108379856 43.11326596472816 59.103465247268645 H 0.0 **** 0.06
12328 H 59.33719656509368 44.24541910775483 58.68284481728345 H 0.0 **** 0.06
12329 H 61.035515295653 44.71028230439336 58.42263620658757 H 0.0 **** 0.06
12330 H 60.39107380918267 44.58190375344495 60.077496637550894 H 0.0 **** 0.06
12331 C 53.04542130703362 56.99025090674843 94.57839130616271 C 0.0 **** -0.24
12332 H 52.054578383961655 57.127717168778986 94.14306328431947 H 0.0 **** 0.06
12333 H 53.36451546368603 55.957648232230156 94.43652621941969 H 0.0 **** 0.06
12334 H 53.0061419863774 57.21532402014907 95.64442850775245 H 0.0 **** 0.06
12335 H 53.75197894774804 57.660194947254695 94.09096210055509 H 0.0 **** 0.06
12336 C 26.731230628834297 11.83780277651681 5.735886508580791 C 0.0 **** -0.24
12337 H 27.324003453169723 10.991415279343755 6.081810797046501 H 0.0 **** 0.06
12338 H 26.323352329742605 12.371228583433435 6.594854082312224 H 0.0 **** 0.06
12339 H 25.91523609852939 11.477967472473381 5.110156946370239 H 0.0 **** 0.06
12340 H 27.363362615928708 12.511527028131468 5.156449800781559 H 0.0 **** 0.06
12341 C 90.06955316208911 103.03866320344507 18.364235374019145 C 0.0 **** -0.24
12342 H 89.12299566734782 102.6219727385389 18.018573584189006 H 0.0 **** 0.06
12343 H 90.87432094248265 102.33267740134005 18.15407584530707 H 0.0 **** 0.06
12344 H 90.01616758886979 103.21957472116343 19.437541034222868 H 0.0 **** 0.06
12345 H 90.26391138849476 103.97693281327638 17.84569412173937 H 0.0 **** 0.06
12346 C 131.93275196526957 13.843751235298782 63.681017392201255 C 0.0 **** -0.24
12347 H 132.43689405310747 12.931658149023917 63.36045686296494 H 0.0 **** 0.06
12348 H 132.2817635368636 14.121791732936828 64.67545666276008 H 0.0 **** 0.06
12349 H 130.856802199455 13.673402763157782 63.70748488502679 H 0.0 **** 0.06
12350 H 132.15682747770006 14.647640822877236 62.97890998030442 H 0.0 **** 0.06
12351 C 49.34196320728766 126.66748762449186 76.68129335185762 C 0.0 **** -0.24
12352 H 48.41677507660614 127.19229274033478 76.44099640434483 H 0.0 **** 0.06
12353 H 50.03540760333222 127.3560482849528 77.16351749202839 H 0.0 **** 0.06
12354 H 49.788828679682496 126.28194589741793 75.76439208589531 H 0.0 **** 0.06
12355 H 49.123312169436616 125.83923087554564 77.35510232402562 H 0.0 **** 0.06
12356 C 75.1995592209196 128.02655290340454 24.547648784467327 C 0.0 **** -0.24
12357 H 74.3237709122981 127.71009597020081 23.97979494804605 H 0.0 **** 0.06
12358 H 75.68230008848917 128.8589809691588 24.034909213268918 H 0.0 **** 0.06
12359 H 75.89950531638394 127.19473766492962 24.629330810426836 H 0.0 **** 0.06
12360 H 74.89133549421469 128.34237592728695 25.544061344457333 H 0.0 **** 0.06
12361 C 99.23259310619304 6.005018843798325 48.89728363629186 C 0.0 **** -0.24
12362 H 99.75827460367036 5.070344666232586 48.69877604139802 H 0.0 **** 0.06
12363 H 99.02391177231321 6.083720923286933 49.96443974802932 H 0.0 **** 0.06
12364 H 98.29590507905321 6.019196136237582 48.340562360215856 H 0.0 **** 0.06
12365 H 99.85392910659857 6.8443225512698405 48.5856365596279 H 0.0 **** 0.06
12366 C 23.625434000777943 96.60215586134802 70.31151391774054 C 0.0 **** -0.24
12367 H 22.887699569728277 97.01894302083602 70.99879300033489 H 0.0 **** 0.06
12368 H 23.12717599780283 96.28148028564163 69.3961013088606 H 0.0 **** 0.06
12369 H 24.114242793595402 95.74805114503118 70.7785536245777 H 0.0 **** 0.06
12370 H 24.36882107430042 97.36261793177425 70.07382898209717 H 0.0 **** 0.06
12371 C 134.26285618328404 94.5428468657494 18.189046071508812 C 0.0 **** -0.24
12372 H 134.38446324841388 93.63986276080995 18.78646003354166 H 0.0 **** 0.06
12373 H 134.49545356354452 95.41665854360433 18.799179463491782 H 0.0 **** 0.06
12374 H 133.23313141434036 94.60983323107928 17.83733197109916 H 0.0 **** 0.06
12375 H 134.9372783676056 94.50631965309151 17.333585063157244 H 0.0 **** 0.06
12376 C 133.17177702871072 37.97347770278165 114.08259913739516 C 0.0 **** -0.24
12377 H 132.15876260274504 38.16392131822559 114.43694651013911 H 0.0 **** 0.06
12378 H 133.14852357323943 37.760254458538924 113.0129836557752 H 0.0 **** 0.06
12379 H 133.58738437916827 37.11793987594416 114.61470307963617 H 0.0 **** 0.06
12380 H 133.79189476903213 38.85087033841313 114.26484125253873 H 0.0 **** 0.06
12381 C 43.71237658905079 24.620540269069537 120.10573558258916 C 0.0 **** -0.24
12382 H 43.52232940062976 24.623571442135194 121.17920144436629 H 0.0 **** 0.06
12383 H 43.97092073326252 25.627637793993557 119.77928414335445 H 0.0 **** 0.06
12384 H 42.819369199656364 24.285189192440527 119.57950515655986 H 0.0 **** 0.06
12385 H 44.53898255022963 23.943898892491283 119.88601723038343 H 0.0 **** 0.06
12386 C 94.80878039597377 104.09405436315876 61.61667104862583 C 0.0 **** -0.24
12387 H 94.3901251996947 104.51549068379671 60.702873857218776 H 0.0 **** 0.06
12388 H 94.00000636065425 103.75148680918437 62.26205317358132 H 0.0 **** 0.06
12389 H 95.39147388385646 104.855982599655 62.134824253920485 H 0.0 **** 0.06
12390 H 95.45435601134221 103.2518608194136 61.365401726666775 H 0.0 **** 0.06
12391 C 9.109704291301924 51.07222586703561 64.99067414064251 C 0.0 **** -0.24
12392 H 8.044371093448405 51.06488663676673 64.7563934173622 H 0.0 **** 0.06
12393 H 9.48172375844625 50.047928511309706 65.01744192215355 H 0.0 **** 0.06
12394 H 9.26356381573504 51.54192726157498 65.96227947107997 H 0.0 **** 0.06
12395 H 9.645138220355435 51.63487081642981 64.22600347642356 H 0.0 **** 0.06
12396 C 131.6626523936616 50.494905750692254 125.75120971088546 C 0.0 **** -0.24
12397 H 132.57599476129374 50.135297741058224 126.2256566355918 H 0.0 **** 0.06
12398 H 130.89043566950824 50.63401202258723 126.50914831812412 H 0.0 **** 0.06
12399 H 131.3241515649115 49.765321424477406 125.01610841023256 H 0.0 **** 0.06
12400 H 131.86096003445795 51.444943832451884 125.25538437076187 H 0.0 **** 0.06
12401 C 21.37558986353573 135.48220186412448 37.109827949620595 C 0.0 **** -0.24
12402 H 21.656006381257882 136.22024877587387 36.358582732273234 H 0.0 **** 0.06
12403 H 21.0804855576257 134.5547686910776 36.6157749478716 H 0.0 **** 0.06
12404 H 20.540950213693883 135.8617084337459 37.698625405987514 H 0.0 **** 0.06
12405 H 22.22594487707309 135.28983913376197 37.76462106803858 H 0.0 **** 0.06
12406 C 119.26866937593357 133.01029037388372 103.75625578578632 C 0.0 **** -0.24
12407 H 119.47709625583931 133.6085359771049 104.643287633417 H 0.0 **** 0.06
12408 H 119.41531555395682 133.62072520982795 102.8646121795237 H 0.0 **** 0.06
12409 H 118.23792482691246 132.65795026446136 103.78975451943941 H 0.0 **** 0.06
12410 H 119.9452231524757 132.15597656507177 103.72770795237572 H 0.0 **** 0.06
12411 C 97.67269775443762 100.30648869997155 131.2941018479176 C 0.0 **** -0.24
12412 H 98.00648786739544 101.24107777615362 131.74442557669957 H 0.0 **** 0.06
12413 H 96.75474509754264 100.48124967362374 130.73291330202986 H 0.0 **** 0.06
12414 H 97.48535512056264 99.57301368206492 132.0784144153017 H 0.0 **** 0.06
12415 H 98.44401866222802 99.93117079918784 130.6222837566488 H 0.0 **** 0.06
12416 C 27.29087421571802 75.89088856519797 41.108600013555645 C 0.0 **** -0.24
12417 H 28.322136952635788 76.13104537048969 41.3668865372525 H 0.0 **** 0.06
12418 H 26.710978893225246 76.81098812494602 41.030790536881625 H 0.0 **** 0.06
12419 H 26.86177529779451 75.2548226871609 41.88356867998965 H 0.0 **** 0.06
12420 H 27.268783986078006 75.36525913989979 40.1541018319176 H 0.0 **** 0.06
12421 C 27.4197671433721 54.68727323362303 4.830276677084072 C 0.0 **** -0.24
12422 H 27.847866853280756 54.619696648807476 3.8309523901532145 H 0.0 **** 0.06
12423 H 27.777759910060453 53.853651240130915 5.435739050333893 H 0.0 **** 0.06
12424 H 26.332977906632834 54.64640095482365 4.7634737295494745 H 0.0 **** 0.06
12425 H 27.72105868871428 55.62769251536078 5.292649990067815 H 0.0 **** 0.06
12426 C 134.27043174370317 118.87455101697836 25.343268587208293 C 0.0 **** -0.24
12427 H 135.33242103826692 118.79153168905829 25.570984463157338 H 0.0 **** 0.06
12428 H 134.10310560626215 119.74002623546767 24.70156717276692 H 0.0 **** 0.06
12429 H 133.70843532775496 118.99362651298651 26.269727505782228 H 0.0 **** 0.06
12430 H 133.93786783731258 117.9713571869238 24.830319974834566 H 0.0 **** 0.06
12431 C 41.93705540780576 101.51173609660887 93.52909997504847 C 0.0 **** -0.24
12432 H 41.4359645352321 100.8661630672084 94.25041576257095 H 0.0 **** 0.06
12433 H 42.47044679720375 100.89889794725077 92.80127089518734 H 0.0 **** 0.06
12434 H 42.64604993923044 102.15547923115253 94.05049102906162 H 0.0 **** 0.06
12435 H 41.196964174999124 102.1255418779379 93.01589779173037 H 0.0 **** 0.06
12436 C 78.17163757524924 50.49733739883328 90.37907054237363 C 0.0 **** -0.24
12437 H 77.16906005310918 50.507049379055275 89.95076214965695 H 0.0 **** 0.06
12438 H 78.10509058326693 50.34440825620402 91.4557214540556 H 0.0 **** 0.06
12439 H 78.66252299565184 51.4492886061293 90.17611863385982 H 0.0 **** 0.06
12440 H 78.74983885870455 49.688740632978295 89.93144835028922 H 0.0 **** 0.06
12441 C 17.266493420289258 66.04449316654042 105.02714580222676 C 0.0 **** -0.24
12442 H 17.083194870213582 65.96072327305325 103.95591272263113 H 0.0 **** 0.06
12443 H 16.346319097798236 66.34196220361018 105.53084758715681 H 0.0 **** 0.06
12444 H 18.0374460797646 66.7941647836579 105.20581178725396 H 0.0 **** 0.06
12445 H 17.599276205872798 65.08188452790763 105.41541927406007 H 0.0 **** 0.06
12446 C 2.767474320516694 107.79126296822193 25.577676534524727 C 0.0 **** -0.24
12447 H 2.178393387799069 106.9131793302891 25.31388718759954 H 0.0 **** 0.06
12448 H 2.109756033890182 108.56398688605452 25.975366680916736 H 0.0 **** 0.06
12449 H 3.274898436672764 108.1675824960314 24.68891589050086 H 0.0 **** 0.06
12450 H 3.506745139638241 107.51988988868334 26.33118788958531 H 0.0 **** 0.06
12451 C 32.094776519094594 24.93012765761661 33.56577456644429 C 0.0 **** -0.24
12452 H 31.415007539997845 24.78249822609122 34.40560419109839 H 0.0 **** 0.06
12453 H 32.16609126941725 25.99343159721142 33.3393657604659 H 0.0 **** 0.06
12454 H 31.71695775814871 24.396014595853458 32.694420881129425 H 0.0 **** 0.06
12455 H 33.081336659560876 24.547398400516286 33.82679843166159 H 0.0 **** 0.06
12456 C 9.032252806622466 45.82060508352855 59.40301126012986 C 0.0 **** -0.24
12457 H 9.77642648202719 45.40128217607344 60.07916497199565 H 0.0 **** 0.06
12458 H 9.435248038084808 46.716302566862566 58.92966577009477 H 0.0 **** 0.06
12459 H 8.134795777059793 46.0794439223494 59.96600544934131 H 0.0 **** 0.06
12460 H 8.781301327442293 45.085345934987785 58.637888104781894 H 0.0 **** 0.06
12461 C 4.935538396554222 70.11089447667912 115.95650438388691 C 0.0 **** -0.24
12462 H 4.705967620965339 70.28766516446623 114.90599764066238 H 0.0 **** 0.06
12463 H 5.879513874552231 69.57219552499652 116.03707598688197 H 0.0 **** 0.06
12464 H 4.139049396818052 69.51909664103518 116.40733100890685 H 0.0 **** 0.06
12465 H 5.016705781969961 71.06607932403534 116.47579028678575 H 0.0 **** 0.06
12466 C 129.0125464382961 96.93317991722701 10.034593511704202 C 0.0 **** -0.24
12467 H 129.83426943970255 96.64307963722655 9.38035642440235 H 0.0 **** 0.06
12468 H 128.23710127318316 96.16658877644551 10.00514930438365 H 0.0 **** 0.06
12469 H 128.59800600146707 97.88342854725326 9.698045107720105 H 0.0 **** 0.06
12470 H 129.38024357572255 97.0389823868525 11.055343101327225 H 0.0 **** 0.06
12471 C 38.61549584514029 110.97493069020112 59.289876620974354 C 0.0 **** -0.24
12472 H 39.226694956350855 110.11852091071307 59.006525319140735 H 0.0 **** 0.06
12473 H 37.660583494676814 110.62650269375627 59.68341619648612 H 0.0 **** 0.06
12474 H 38.44188770277583 111.60248881502173 58.415115439574436 H 0.0 **** 0.06
12475 H 39.134736073972874 111.5542459204633 60.05403142145951 H 0.0 **** 0.06
12476 C 93.81503629574591 5.811846790389723 18.602473016055626 C 0.0 **** -0.24
12477 H 93.63730245359221 6.864687877303453 18.384371280370544 H 0.0 **** 0.06
12478 H 94.0816974854721 5.698397070513693 19.65328129365048 H 0.0 **** 0.06
12479 H 94.63058792326362 5.444030035404126 17.97870743180897 H 0.0 **** 0.06
12480 H 92.91147912856792 5.239429871678368 18.39142467429258 H 0.0 **** 0.06
12481 C 93.49552320638338 36.376075634563385 70.87634697368796 C 0.0 **** -0.24
12482 H 94.57573727631214 36.3040039262857 71.00114790334086 H 0.0 **** 0.06
12483 H 93.22469834938285 37.40409932140153 70.63387161755969 H 0.0 **** 0.06
12484 H 93.00259058635645 36.07895072562113 71.80273530771183 H 0.0 **** 0.06
12485 H 93.17828202263142 35.716448740385225 70.06895398888844 H 0.0 **** 0.06
12486 C 98.36361466951918 100.78006785192821 26.634883132097144 C 0.0 **** -0.24
12487 H 98.96820140253203 101.42269224116046 25.993916755968726 H 0.0 **** 0.06
12488 H 97.32695064983997 101.11709787265909 26.61191425968945 H 0.0 **** 0.06
12489 H 98.73904539086053 100.83087633614605 27.656474190403564 H 0.0 **** 0.06
12490 H 98.42058001674731 99.75258271542992 26.277405519972106 H 0.0 **** 0.06
12491 C 102.11128821390827 47.710129475505326 35.58439985145779 C 0.0 **** -0.24
12492 H 102.32768823032768 48.709551072328466 35.20766049395115 H 0.0 **** 0.06
12493 H 101.03992623121303 47.51782860228805 35.50940621534349 H 0.0 **** 0.06
12494 H 102.42117456242187 47.63889189863164 36.62640784762377 H 0.0 **** 0.06
12495 H 102.65469373981114 46.97352441003646 34.992484756050146 H 0.0 **** 0.06
12496 C 50.90044059756934 60.48928404790125 110.8084668329011 C 0.0 **** -0.24
12497 H 50.65594445168517 59.65674701049866 110.14840259357896 H 0.0 **** 0.06
12498 H 49.980359684384524 60.95858052640246 111.15726907840067 H 0.0 **** 0.06
12499 H 51.497715883677444 61.22138439374159 110.26363984666224 H 0.0 **** 0.06
12500 H 51.467808728522144 60.120941116244026 111.66262484361533 H 0.0 **** 0.06
12501 C 94.1176088892762 82.6025500434933 45.00357104076508 C 0.0 **** -0.24
12502 H 93.05824872337033 82.4032668549035 45.16523523300131 H 0.0 **** 0.06
12503 H 94.67638014823393 81.66857920897831 45.06894117629352 H 0.0 **** 0.06
12504 H 94.47703115730258 83.29528864769168 45.765103025019656 H 0.0 **** 0.06
12505 H 94.25893381911158 83.04285624219642 44.017225404909844 H 0.0 **** 0.06
12506 C 26.79319442591759 2.866671988788937 128.5745537935183 C 0.0 **** -0.24
12507 H 25.817753699143736 2.6277481476888624 128.15106372306093 H 0.0 **** 0.06
12508 H 27.160523469201337 2.0125047968774368 129.14290123876287 H 0.0 **** 0.06
12509 H 26.701172343890505 3.7307501535010203 129.23357881905082 H 0.0 **** 0.06
12510 H 27.491541115098926 3.0965502612426405 127.77043135318957 H 0.0 **** 0.06
12511 C 67.93107970653017 55.83051296176558 9.250917485786516 C 0.0 **** -0.24
12512 H 67.87967844809361 56.014578644407266 10.32444617096732 H 0.0 **** 0.06
12513 H 68.81041993851818 56.3263438382798 8.839926542513524 H 0.0 **** 0.06
12514 H 67.03435814503086 56.2253683264056 8.772604014803989 H 0.0 **** 0.06
12515 H 67.99894674656099 54.75836519850873 9.069219233220053 H 0.0 **** 0.06
12516 C 79.47867139753293 33.768853068502324 8.012827851365913 C 0.0 **** -0.24
12517 H 80.39509191211428 34.14282589639606 7.556247268757058 H 0.0 **** 0.06
12518 H 78.62955505029325 34.350819037332144 7.652659609915638 H 0.0 **** 0.06
12519 H 79.5492177094325 33.861113185186525 9.096367571383752 H 0.0 **** 0.06
12520 H 79.34064486679404 32.72200834061101 7.7456691509069415 H 0.0 **** 0.06
12521 C 0.9922356799112038 105.9160570938193 127.89634166906015 C 0.0 **** -0.24
12522 H 1.3113053139878161 105.79555676961648 128.93161231132 H 0.0 **** 0.06
12523 H 0.08750742936490497 105.33313335985831 127.72544769977006 H 0.0 **** 0.06
12524 H 1.7814408840671376 105.56654539034022 127.23065872777556 H 0.0 **** 0.06
12525 H 0.7908631360976415 106.96868035606771 127.69873244438148 H 0.0 **** 0.06
12526 C 42.491027005267654 33.19842494262602 136.288290821202 C 0.0 **** -0.24
12527 H 43.485421840479376 33.58617516504346 136.51209607632399 H 0.0 **** 0.06
12528 H 42.02604179931737 33.81337140798679 135.51807160440467 H 0.0 **** 0.06
12529 H 41.88102842664611 33.22171827085481 137.19006635421192 H 0.0 **** 0.06
12530 H 42.573956960403876 32.17082891261602 135.9319592869315 H 0.0 **** 0.06
12531 C 80.1099670240105 37.56185853492923 40.02952225721435 C 0.0 **** -0.24
12532 H 79.73052844867905 36.6186042543973 40.421423716717186 H 0.0 **** 0.06
12533 H 79.92321134801121 37.60969374875583 38.956087008522786 H 0.0 **** 0.06
12534 H 81.18168936561185 37.628384097242275 40.21628848637704 H 0.0 **** 0.06
12535 H 79.60246317340399 38.389704972690595 40.52427387052029 H 0.0 **** 0.06
12536 C 79.00296890687304 20.20735086669481 7.795946540015052 C 0.0 **** -0.24
12537 H 79.19948375275672 19.66869317789954 6.868954700436348 H 0.0 **** 0.06
12538 H 78.47752025504826 19.55262489446656 8.491625853070872 H 0.0 **** 0.06
12539 H 78.38833346671896 21.082018755125006 7.5845431456669985 H 0.0 **** 0.06
12540 H 79.94797882820592 20.52510612239388 8.238707195589825 H 0.0 **** 0.06
12541 C 39.11080470220503 27.881302667076532 70.80763499861285 C 0.0 **** -0.24
12542 H 39.21662581809298 26.85878950700861 70.44360087377157 H 0.0 **** 0.06
12543 H 38.11367997873511 28.014979426114103 71.22683526145582 H 0.0 **** 0.06
12544 H 39.254998189486415 28.57740974562268 69.98205145854487 H 0.0 **** 0.06
12545 H 39.85824464549013 28.07073394598101 71.57817337652449 H 0.0 **** 0.06
12546 C 94.95053715391435 104.92601630555318 66.83411009553188 C 0.0 **** -0.24
12547 H 95.10937666277192 104.92339707016914 65.75578398147894 H 0.0 **** 0.06
12548 H 94.22348692408269 105.6964436197612 67.09140523862499 H 0.0 **** 0.06
12549 H 95.89363954580341 105.13104446834087 67.33997308000588 H 0.0 **** 0.06
12550 H 94.57342933438514 103.95223475406964 67.1474904881922 H 0.0 **** 0.06
12551 C 96.14046043435174 109.42924488313922 131.8240420545375 C 0.0 **** -0.24
12552 H 95.8219173217867 110.43180700635509 131.53741413078865 H 0.0 **** 0.06
12553 H 95.44927037022765 109.02685754905654 132.5648556662072 H 0.0 **** 0.06
12554 H 97.1436398871928 109.47489546099624 132.24772007521358 H 0.0 **** 0.06
12555 H 96.14671138198786 108.78582103040159 130.94440592584994 H 0.0 **** 0.06
12556 C 88.87445182531589 67.11865188473772 24.10989027605163 C 0.0 **** -0.24
12557 H 88.63672798774815 67.12246033121978 23.046726188828472 H 0.0 **** 0.06
12558 H 88.56281125518099 68.06281738728272 24.555923563407234 H 0.0 **** 0.06
12559 H 89.94987525513399 66.99264162391776 24.240377764552605 H 0.0 **** 0.06
12560 H 88.35055410585821 66.29554238160091 24.596406477042798 H 0.0 **** 0.06
12561 C 84.01264527489431 10.61702246072906 76.34816607962341 C 0.0 **** -0.24
12562 H 83.74919159270479 9.88392198445041 75.58469965202312 H 0.0 **** 0.06
12563 H 84.53438706802126 10.118099954316392 77.16568058043686 H 0.0 **** 0.06
12564 H 83.1052083273018 11.086280521704339 76.72823859914112 H 0.0 **** 0.06
12565 H 84.6612027382069 11.37680118488106 75.91272889603323 H 0.0 **** 0.06
12566 C 58.24906771488355 58.94683011303847 23.33612131182278 C 0.0 **** -0.24
12567 H 58.95614743652101 59.33688203454149 22.60464350351483 H 0.0 **** 0.06
12568 H 57.59926749424744 58.21381420041568 22.85762217281689 H 0.0 **** 0.06
12569 H 57.64663000652263 59.763817668140234 23.731920700090917 H 0.0 **** 0.06
12570 H 58.79576142985417 58.4713415707983 24.15100334713538 H 0.0 **** 0.06
12571 C 136.85056751202848 125.43621842808919 55.8182562936409 C 0.0 **** -0.24
12572 H 137.5576759151374 125.28471041537719 56.63474521585891 H 0.0 **** 0.06
12573 H 136.79644996454468 124.53069167897934 55.21301856237557 H 0.0 **** 0.06
12574 H 137.18382435369202 126.26882369532659 55.19908476003286 H 0.0 **** 0.06
12575 H 135.8655556083053 125.65943649734871 56.228413963656635 H 0.0 **** 0.06
12576 C 1.4756888784727664 113.82511334280534 123.81370186170312 C 0.0 **** -0.24
12577 H 2.462159524808925 113.52182689047203 124.16479880882449 H 0.0 **** 0.06
12578 H 1.5529278362441232 114.20403195730825 122.79439233610388 H 0.0 **** 0.06
12579 H 1.0834916106749688 114.60764441270709 124.46427664659136 H 0.0 **** 0.06
12580 H 0.8040140897232106 112.96695069100949 123.83306411112204 H 0.0 **** 0.06
12581 C 83.81450491473613 6.121323616487921 60.98545765826401 C 0.0 **** -0.24
12582 H 83.11760769522097 5.379413609688733 60.59594019266797 H 0.0 **** 0.06
12583 H 84.36138979639344 5.69978769802491 61.828450793205434 H 0.0 **** 0.06
12584 H 83.26136210980269 7.001121406218079 61.31453205348521 H 0.0 **** 0.06
12585 H 84.51665355893378 6.406523229865073 60.201650569907 H 0.0 **** 0.06
12586 C 133.47331374441345 133.85007093480849 116.73275008662955 C 0.0 **** -0.24
12587 H 132.41086334046184 133.60497367594755 116.71168848685355 H 0.0 **** 0.06
12588 H 133.6787969802248 134.50094339961825 117.58195129079584 H 0.0 **** 0.06
12589 H 133.74573143733483 134.35975917749101 115.8086902685452 H 0.0 **** 0.06
12590 H 134.05466867969508 132.93368975141223 116.82695177585691 H 0.0 **** 0.06
12591 C 14.26118754001476 121.01771459233484 128.94717217169372 C 0.0 **** -0.24
12592 H 15.031618838108898 121.34758972830485 129.64396199794152 H 0.0 **** 0.06
12593 H 13.401815542379666 121.68526734791143 129.01347579506867 H 0.0 **** 0.06
12594 H 13.953594730977045 120.00265773817478 129.19899814514196 H 0.0 **** 0.06
12595 H 14.6577210485936 121.0353435549483 127.932252748623 H 0.0 **** 0.06
12596 C 113.47454194598765 40.57404125043858 60.98692960355123 C 0.0 **** -0.24
12597 H 113.01435957111414 41.44950900541383 60.5279290694057 H 0.0 **** 0.06
12598 H 114.27819161250068 40.89266716990585 61.65097162723379 H 0.0 **** 0.06
12599 H 113.88099752604614 39.92804073928626 60.2079762558032 H 0.0 **** 0.06
12600 H 112.72449566140313 40.02663388773847 61.55849311662399 H 0.0 **** 0.06
12601 C 52.55468924458525 47.019583801349896 72.53313737562635 C 0.0 **** -0.24
12602 H 51.628030426009076 47.59153891276193 72.58998709649286 H 0.0 **** 0.06
12603 H 53.367340623355034 47.67492643909527 72.21970823511101 H 0.0 **** 0.06
12604 H 52.4391688527635 46.21228069340215 71.80859208163872 H 0.0 **** 0.06
12605 H 52.78267909572848 46.5993107884064 73.51266291543263 H 0.0 **** 0.06
12606 C 17.950877625306305 43.673217462627 42.44779154580095 C 0.0 **** -0.24
12607 H 17.47178002354849 42.84525003780465 41.9249000553626 H 0.0 **** 0.06
12608 H 18.948068396443716 43.370719745936476 42.769269090928674 H 0.0 **** 0.06
12609 H 17.35542655462001 43.94597756822509 43.31915026343145 H 0.0 **** 0.06
12610 H 18.028122965933733 44.529640349232935 41.77843287580697 H 0.0 **** 0.06
12611 C 15.944560046492029 44.05434091895904 27.5738451179501 C 0.0 **** -0.24
12612 H 16.343456365217776 43.08873398666816 27.262501164775756 H 0.0 **** 0.06
12613 H 15.953566360333141 44.117831521538704 28.662374370435202 H 0.0 **** 0.06
12614 H 14.922807332640048 44.158659781419544 27.21128761161151 H 0.0 **** 0.06
12615 H 16.560678459647704 44.85269600423513 27.158479754139023 H 0.0 **** 0.06
12616 C 58.00419350964144 56.882543198896514 52.945919849460125 C 0.0 **** -0.24
12617 H 56.97470316381711 56.87089958000044 53.30394794748575 H 0.0 **** 0.06
12618 H 58.01044978256249 57.01351716330923 51.86367645845401 H 0.0 **** 0.06
12619 H 58.4872265053566 55.93967644774075 53.20121859281802 H 0.0 **** 0.06
12620 H 58.543118525937004 57.70604895874227 53.41544535074517 H 0.0 **** 0.06
12621 C 123.43961562023844 8.816771003903284 133.83414960600228 C 0.0 **** -0.24
12622 H 124.1645413161335 8.224179247272332 133.2751944610299 H 0.0 **** 0.06
12623 H 122.57918920566661 9.030024757682213 133.19956682798127 H 0.0 **** 0.06
12624 H 123.90119335462455 9.753468070434337 134.14788308962304 H 0.0 **** 0.06
12625 H 123.11511790317846 8.260043416465805 134.71250239622188 H 0.0 **** 0.06
12626 C 44.121436893439466 128.41390502854324 116.76645423779817 C 0.0 **** -0.24
12627 H 44.002207645368856 128.54039710772037 115.69104587905983 H 0.0 **** 0.06
12628 H 44.4424780298196 129.35720500659744 117.2096447809165 H 0.0 **** 0.06
12629 H 44.87066427017919 127.64680367436085 116.96101500150613 H 0.0 **** 0.06
12630 H 43.17014777658807 128.11192155229696 117.20477269024937 H 0.0 **** 0.06
12631 C 56.116196519988165 128.70778305375674 101.22650744749873 C 0.0 **** -0.24
12632 H 56.746240064364486 127.864919466191 101.5090497012553 H 0.0 **** 0.06
12633 H 55.46312447617245 128.4134366585777 100.40433884343852 H 0.0 **** 0.06
12634 H 56.74386492988009 129.5407263577665 100.91150613046875 H 0.0 **** 0.06
12635 H 55.51155660953533 129.01204973249187 102.08113511483225 H 0.0 **** 0.06
12636 C 85.8640488853365 7.954781540490899 122.14854629783973 C 0.0 **** -0.24
12637 H 84.96854404372226 7.815772822872248 121.54317310747282 H 0.0 **** 0.06
12638 H 86.53074089830989 7.102980357073363 122.0118656683754 H 0.0 **** 0.06
12639 H 85.5834847075098 8.031437052771821 123.19907699289573 H 0.0 **** 0.06
12640 H 86.37313982441117 8.867293527107563 121.84053933718317 H 0.0 **** 0.06
12641 C 87.76362638842915 12.462890075138333 98.19841356060816 C 0.0 **** -0.24
12642 H 88.24801520976723 12.542802648352968 97.22504953382129 H 0.0 **** 0.06
12643 H 88.39718815260005 12.921880365069057 98.95733481041574 H 0.0 **** 0.06
12644 H 87.60880258354678 11.412164974021387 98.44147397577036 H 0.0 **** 0.06
12645 H 86.80226011118168 12.974558545048602 98.16842580747799 H 0.0 **** 0.06
12646 C 51.66064385377939 78.12085971554284 65.15214244396326 C 0.0 **** -0.24
12647 H 51.74483397749469 78.49825334086063 66.17096829242622 H 0.0 **** 0.06
12648 H 52.3900050753368 77.32517834780293 64.99728936660853 H 0.0 **** 0.06
12649 H 51.85190442699317 78.93115050264623 64.44824378681143 H 0.0 **** 0.06
12650 H 50.656041939559486 77.73019970791039 64.99167814750335 H 0.0 **** 0.06
12651 C 72.10590479610897 60.60110956125715 9.256010853244803 C 0.0 **** -0.24
12652 H 71.45467654341873 59.8088635167354 9.625503800104923 H 0.0 **** 0.06
12653 H 71.51105999603114 61.339775272406314 8.718966457761354 H 0.0 **** 0.06
12654 H 72.85013588638256 60.17407239170274 8.582535181019125 H 0.0 **** 0.06
12655 H 72.60935899612416 61.079363537419496 10.096135284485939 H 0.0 **** 0.06
12656 C 54.148156106647576 112.5054363507856 54.65010153119272 C 0.0 **** -0.24
12657 H 55.1617519060556 112.41152653433662 54.26117411653314 H 0.0 **** 0.06
12658 H 53.8438242378777 111.56295200888249 55.10546780986073 H 0.0 **** 0.06
12659 H 53.46783448822549 112.75152052830549 53.835338931021454 H 0.0 **** 0.06
12660 H 54.117949359174304 113.29746627214175 55.39909102993124 H 0.0 **** 0.06
12661 C 35.009005121185695 91.26337245730736 115.52540538147758 C 0.0 **** -0.24
12662 H 34.97384625579663 91.04272574656261 116.59252251230907 H 0.0 **** 0.06
12663 H 35.324717108581154 90.37253648644844 114.9805858076252 H 0.0 **** 0.06
12664 H 35.71726330623297 92.07153767813804 115.34489680591025 H 0.0 **** 0.06
12665 H 34.01802552929765 91.56576365449914 115.1854713916488 H 0.0 **** 0.06
12666 C 106.42332666455205 63.1180703355424 84.83022940278084 C 0.0 **** -0.24
12667 H 105.76707075397981 63.66076614459301 84.1485875757115 H 0.0 **** 0.06
12668 H 106.7358930800733 63.780178583429034 85.63754220065454 H 0.0 **** 0.06
12669 H 107.30003210166203 62.767852017088 84.28679615252446 H 0.0 **** 0.06
12670 H 105.88812927501749 62.26454481445428 85.24596247316236 H 0.0 **** 0.06
12671 C 91.79818873341576 42.11783017579958 112.72659849057774 C 0.0 **** -0.24
12672 H 91.94924564030813 43.16315456583854 112.99387875429667 H 0.0 **** 0.06
12673 H 90.74017784317905 41.86967372674208 112.81506558548611 H 0.0 **** 0.06
12674 H 92.37847790537309 41.483265843989415 113.3959165126881 H 0.0 **** 0.06
12675 H 92.12420921147172 41.955839744790936 111.69884811116765 H 0.0 **** 0.06
12676 C 135.49123856506185 100.38668936391326 6.5690614009827755 C 0.0 **** -0.24
12677 H 135.05042295764173 100.82410241178377 5.673143716369395 H 0.0 **** 0.06
12678 H 136.23887604784454 99.64653644888983 6.281560130037747 H 0.0 **** 0.06
12679 H 134.71238519717707 99.90585269721282 7.159914630241815 H 0.0 **** 0.06
12680 H 135.96507604603352 101.17038333235007 7.160775775284492 H 0.0 **** 0.06
12681 C 96.87998080763688 87.07094932275315 47.61698018864439 C 0.0 **** -0.24
12682 H 96.6978985721718 86.55989845633779 46.67170820537376 H 0.0 **** 0.06
12683 H 97.60105741530387 86.50185455377212 48.20462955713543 H 0.0 **** 0.06
12684 H 95.94488852616263 87.15518687439454 48.17126130012065 H 0.0 **** 0.06
12685 H 97.2773674259246 88.06695546479502 47.41974749133908 H 0.0 **** 0.06
12686 C 18.38384588476154 129.7221542230521 45.53434507911652 C 0.0 **** -0.24
12687 H 19.166657575075618 129.19395308227493 46.07833354980119 H 0.0 **** 0.06
12688 H 18.839043450785596 130.4356777426347 44.84677292300438 H 0.0 **** 0.06
12689 H 17.745300086172392 130.25220665344995 46.239931837770825 H 0.0 **** 0.06
12690 H 17.786274151517915 129.00509041693118 44.970739169364435 H 0.0 **** 0.06
12691 C 1.4998035951951607 49.900866662476474 49.24758276196977 C 0.0 **** -0.24
12692 H 1.3790521632723696 50.17081249516167 48.198287084798324 H 0.0 **** 0.06
12693 H 0.562586556937017 49.49330734079767 49.62730859827897 H 0.0 **** 0.06
12694 H 1.7703359439879058 50.786858082406994 49.821199770369205 H 0.0 **** 0.06
12695 H 2.2863098931329375 49.1523583321341 49.341769635845495 H 0.0 **** 0.06
12696 C 26.346379390921754 24.993657570047958 54.56065047556217 C 0.0 **** -0.24
12697 H 26.48251895742942 26.053123976295296 54.34488674126544 H 0.0 **** 0.06
12698 H 26.736295347970497 24.773015597523 55.55469864484354 H 0.0 **** 0.06
12699 H 26.88264438326115 24.401072813606902 53.81938383568064 H 0.0 **** 0.06
12700 H 25.28592332285774 24.748649919306047 54.523554088973555 H 0.0 **** 0.06
12701 C 81.34649071927936 113.9161418501327 22.673048914845253 C 0.0 **** -0.24
12702 H 81.92821625236279 114.79787081739974 22.40222693470099 H 0.0 **** 0.06
12703 H 80.28360654583975 114.14321458511932 22.593882992767647 H 0.0 **** 0.06
12704 H 81.58199894372696 113.62795439509594 23.698173292070294 H 0.0 **** 0.06
12705 H 81.594700503154 113.09607798162048 21.998983462562478 H 0.0 **** 0.06
12706 C 21.723998656798642 76.2401079281476 109.01015111668625 C 0.0 **** -0.24
12707 H 21.37727547658028 76.38457081701213 107.98611759801129 H 0.0 **** 0.06
12708 H 21.254817635756183 76.97980944718499 109.65918032542962 H 0.0 **** 0.06
12709 H 22.806541064788576 76.35905582910381 109.04722350574595 H 0.0 **** 0.06
12710 H 21.455151703540878 75.23849116459125 109.34565705620459 H 0.0 **** 0.06
12711 C 125.36821018902856 32.35031000244075 89.73074405527632 C 0.0 **** -0.24
12712 H 125.65155931810006 31.998213098340642 90.72216125286519 H 0.0 **** 0.06
12713 H 124.6964246629156 31.627562628996117 89.26697198553751 H 0.0 **** 0.06
12714 H 126.26136515410627 32.46408092472777 89.11591442484989 H 0.0 **** 0.06
12715 H 124.86225503017698 33.31256732949696 89.81766551227557 H 0.0 **** 0.06
12716 C 2.814960799099026 43.622523137531346 92.34791292494943 C 0.0 **** -0.24
12717 H 2.8493472575023873 44.603770475979445 91.87352348667415 H 0.0 **** 0.06
12718 H 2.758832997077832 43.744849532326384 93.43011394097178 H 0.0 **** 0.06
12719 H 3.715227265747586 43.06463553013748 92.09087838702891 H 0.0 **** 0.06
12720 H 1.9378873195690005 43.07930909876967 91.9962516149745 H 0.0 **** 0.06
12721 C 48.54617425817929 70.13500207463849 31.685129315938198 C 0.0 **** -0.24
12722 H 48.18838888674446 71.02926974561058 32.19579950435315 H 0.0 **** 0.06
12723 H 49.49041963401254 70.35467117563377 31.18616313327665 H 0.0 **** 0.06
12724 H 47.80932026545025 69.81998369812987 30.945831873922316 H 0.0 **** 0.06
12725 H 48.69597274006006 69.3365909250189 32.41154454745619 H 0.0 **** 0.06
12726 C 35.249361029550386 59.62700027625044 72.46760793722903 C 0.0 **** -0.24
12727 H 34.856663111226794 60.26807036919956 71.6780146446813 H 0.0 **** 0.06
12728 H 36.32830811899453 59.76119513991148 72.54140464740046 H 0.0 **** 0.06
12729 H 35.0273573750882 58.586227621732405 72.23343986730463 H 0.0 **** 0.06
12730 H 34.78382435273778 59.89290349034479 73.4164878723125 H 0.0 **** 0.06
12731 C 9.514293478831746 103.85929149523426 36.211893762619866 C 0.0 **** -0.24
12732 H 9.23083870131265 104.74084575809457 36.78796197897657 H 0.0 **** 0.06
12733 H 10.555220997119108 103.61007254950819 36.41924347988754 H 0.0 **** 0.06
12734 H 9.393499875779753 104.06665756902659 35.14855736862347 H 0.0 **** 0.06
12735 H 8.876020018579965 103.02183974416509 36.4929944553225 H 0.0 **** 0.06
12736 C 57.727715513601765 119.15407601890166 76.62096869652618 C 0.0 **** -0.24
12737 H 58.59893575379684 119.62606362937723 77.07456987038587 H 0.0 **** 0.06
12738 H 57.13971584158821 119.90707667593034 76.09642847069914 H 0.0 **** 0.06
12739 H 57.11821017530835 118.69264237616636 77.39806541303777 H 0.0 **** 0.06
12740 H 58.054000283713776 118.39052139413269 75.91481103198201 H 0.0 **** 0.06
12741 C 134.72874814823672 59.97907847549659 65.39263596172806 C 0.0 **** -0.24
12742 H 134.28021991815652 59.22743437542148 64.74354690323179 H 0.0 **** 0.06
12743 H 135.67080168143548 60.31688255275006 64.95919199731624 H 0.0 **** 0.06
12744 H 134.91469064567966 59.54635060545088 66.37479275362074 H 0.0 **** 0.06
12745 H 134.04907358098436 60.82604376555916 65.49082140413266 H 0.0 **** 0.06
12746 C 81.99214669760158 47.80037524320062 117.92602833075628 C 0.0 **** -0.24
12747 H 82.97944522195499 47.34489172535636 117.85137287899616 H 0.0 **** 0.06
12748 H 81.22842489404277 47.04401668832213 117.74251580288185 H 0.0 **** 0.06
12749 H 81.90230749435527 48.59555432599943 117.18695652339986 H 0.0 **** 0.06
12750 H 81.85939974263535 48.2159746901517 118.92421034975445 H 0.0 **** 0.06
12751 C 10.40655920905727 37.47023546285499 127.32972092630516 C 0.0 **** -0.24
12752 H 10.221768109834763 36.4063931603763 127.18088254067621 H 0.0 **** 0.06
12753 H 11.437207119144844 37.617882453329514 127.65579057827009 H 0.0 **** 0.06
12754 H 9.725861833725777 37.853277496806186 128.0897116661201 H 0.0 **** 0.06
12755 H 10.242805702425198 38.001666731346006 126.39225751028451 H 0.0 **** 0.06
12756 C 58.335948070449476 28.964214492805667 43.79752949061198 C 0.0 **** -0.24
12757 H 58.82346666765615 29.415888720808084 44.66137210473568 H 0.0 **** 0.06
12758 H 58.88369624913376 29.227990730968884 42.89210795859532 H 0.0 **** 0.06
12759 H 57.31274198255963 29.33307754563907 43.72419174390321 H 0.0 **** 0.06
12760 H 58.32477336258056 27.880068478898124 43.912013688341325 H 0.0 **** 0.06
12761 C 75.47825356648606 5.649159496606444 70.68439618090515 C 0.0 **** -0.24
12762 H 74.40344550951765 5.489593562783142 70.59400564124758 H 0.0 **** 0.06
12763 H 75.75547559638483 5.666183023075462 71.73863819729145 H 0.0 **** 0.06
12764 H 75.74482661081423 6.59967164540339 70.22267926436948 H 0.0 **** 0.06
12765 H 76.00885754763453 4.840277502029835 70.18228524830106 H 0.0 **** 0.06
12766 C 72.44828826699784 15.45268235965601 12.066378710501539 C 0.0 **** -0.24
12767 H 72.05550153641887 15.80504378264881 11.112770268781844 H 0.0 **** 0.06
12768 H 72.61824473295543 14.376241904616734 12.01264865170117 H 0.0 **** 0.06
12769 H 71.73069341325875 15.669098121387805 12.857627656315827 H 0.0 **** 0.06
12770 H 73.38971388195718 15.958605030878942 12.281064841024914 H 0.0 **** 0.06
12771 C 68.11655430148066 80.42457458420631 30.749183781050846 C 0.0 **** -0.24
12772 H 67.82088955031764 80.05079605547678 31.72980147298557 H 0.0 **** 0.06
12773 H 69.20518164577383 80.44191993084985 30.680308523215672 H 0.0 **** 0.06
12774 H 67.72790179766245 81.43368124611214 30.613415511262076 H 0.0 **** 0.06
12775 H 67.71318718216877 79.7724215433459 29.97540966877338 H 0.0 **** 0.06
12776 C 112.11450868529829 78.25923194769734 11.144567308324099 C 0.0 **** -0.24
12777 H 112.27122098724325 77.2844697939965 11.606025908485208 H 0.0 **** 0.06
12778 H 111.10091548413374 78.60220166590199 11.356385009505402 H 0.0 **** 0.06
12779 H 112.25394317741944 78.17758851977283 10.067247777685452 H 0.0 **** 0.06
12780 H 112.83154267060334 78.97224886757601 11.550988493181592 H 0.0 **** 0.06
12781 C 114.42269031470869 33.677267435193755 94.72607644333331 C 0.0 **** -0.24
12782 H 115.1088191259305 34.424636423206664 95.1236338338679 H 0.0 **** 0.06
12783 H 113.67190316037752 34.167387426020696 94.10560473442374 H 0.0 **** 0.06
12784 H 113.93106767007109 33.160561953017634 95.55097566731291 H 0.0 **** 0.06
12785 H 114.97787800072794 32.95721536707123 94.12461095693743 H 0.0 **** 0.06
12786 C 5.555748562819986 22.66947115158945 83.22196054444746 C 0.0 **** -0.24
12787 H 5.587204001943178 21.734910738293877 83.78136327506664 H 0.0 **** 0.06
12788 H 4.6677000762628325 22.684997027703048 82.59017506589404 H 0.0 **** 0.06
12789 H 6.44619176772224 22.749572525247117 82.59901215437992 H 0.0 **** 0.06
12790 H 5.523210294160776 23.508096608226026 83.91772105049273 H 0.0 **** 0.06
12791 C 83.30634580107693 107.19863406505586 87.35215547503553 C 0.0 **** -0.24
12792 H 84.23206108225742 107.60614904690141 86.94585039317509 H 0.0 **** 0.06
12793 H 82.45830189119249 107.59904538511742 86.79604811656836 H 0.0 **** 0.06
12794 H 83.2168424599015 107.4762091693266 88.40257743364829 H 0.0 **** 0.06
12795 H 83.31887202884047 106.11196773448187 87.26374464660324 H 0.0 **** 0.06
12796 C 50.32967707916555 133.81300067094259 86.52412241563275 C 0.0 **** -0.24
12797 H 49.8438171691522 134.75988510859676 86.29023775037606 H 0.0 **** 0.06
12798 H 49.604750211193334 133.0031384555954 86.44374655684598 H 0.0 **** 0.06
12799 H 50.72398425364622 133.84864690146037 87.53928999968673 H 0.0 **** 0.06
12800 H 51.146190975194514 133.64161509303742 85.82262109250217 H 0.0 **** 0.06
12801 C 117.21028970697066 135.17478944178052 63.405581309536146 C 0.0 **** -0.24
12802 H 116.79545348356945 135.31779036459727 62.408706883139516 H 0.0 **** 0.06
12803 H 116.7773985385142 135.90717640809623 64.08744981502676 H 0.0 **** 0.06
12804 H 118.29255087431176 135.30544227311984 63.37127778754727 H 0.0 **** 0.06
12805 H 116.97660254722143 134.16906340587863 63.75597901164322 H 0.0 **** 0.06
12806 C 87.80058975125827 91.98884824797375 86.84005304020354 C 0.0 **** -0.24
12807 H 86.87186732409181 92.49354030205924 87.10901533152438 H 0.0 **** 0.06
12808 H 87.66964749047243 91.4700530264206 85.8905127851976 H 0.0 **** 0.06
12809 H 88.06035958365153 91.26857692189657 87.61592733401207 H 0.0 **** 0.06
12810 H 88.5980502319928 92.72511352890021 86.7454632550221 H 0.0 **** 0.06
12811 C 85.96349384528274 41.236440124989315 54.67400178702765 C 0.0 **** -0.24
12812 H 87.04685584450891 41.2274855280312 54.55329277350042 H 0.0 **** 0.06
12813 H 85.71507945355059 41.49012375050066 55.70499354838944 H 0.0 **** 0.06
12814 H 85.56418406861572 40.2506348428767 54.43564971873654 H 0.0 **** 0.06
12815 H 85.52996993261182 41.97797036951517 54.00322241991404 H 0.0 **** 0.06
12816 C 15.886064999683889 35.04367021690426 112.27832801108997 C 0.0 **** -0.24
12817 H 15.297167554659111 34.13227535771115 112.1814558658333 H 0.0 **** 0.06
12818 H 16.94616526717204 34.80222331099642 112.19125936042497 H 0.0 **** 0.06
12819 H 15.695243660862609 35.498037369630325 113.25018280209636 H 0.0 **** 0.06
12820 H 15.605882496926831 35.74195300364156 111.48902704007747 H 0.0 **** 0.06
12821 C 119.09784366728783 56.46026887212733 45.417877816170204 C 0.0 **** -0.24
12822 H 119.26218559788566 57.506290786430554 45.16307229522215 H 0.0 **** 0.06
12823 H 118.43864592480743 56.39616294862759 46.28350003273306 H 0.0 **** 0.06
12824 H 120.05205829260704 55.98911187323722 45.65273643996963 H 0.0 **** 0.06
12825 H 118.63805723042734 55.948164482495756 44.57211802262279 H 0.0 **** 0.06
12826 C 5.926571806714122 103.93357082547831 11.800295151128196 C 0.0 **** -0.24
12827 H 5.685611060398514 104.54721621703837 10.931362825530172 H 0.0 **** 0.06
12828 H 5.903486513829023 102.88055355266818 11.517794169819254 H 0.0 **** 0.06
12829 H 5.19545689953307 104.11497815385948 12.586792664703339 H 0.0 **** 0.06
12830 H 6.921648353082418 104.19058705482252 12.162053828009334 H 0.0 **** 0.06
12831 C 98.54825734361667 9.44799057211689 4.812941919279687 C 0.0 **** -0.24
12832 H 98.4961192500403 8.817930139183385 5.700407126598723 H 0.0 **** 0.06
12833 H 99.51394325984921 9.955233737073279 4.784600031111335 H 0.0 **** 0.06
12834 H 97.74891515831881 10.188897666705287 4.8450487383019265 H 0.0 **** 0.06
12835 H 98.43607592048416 8.831266846686805 3.9215204635477505 H 0.0 **** 0.06
12836 C 57.59062256718727 69.97662506409853 80.8111316704007 C 0.0 **** -0.24
12837 H 56.7287700748262 69.3486408240928 81.03931403038753 H 0.0 **** 0.06
12838 H 58.1278238150872 70.20323310421904 81.73141837565223 H 0.0 **** 0.06
12839 H 57.25229512464233 70.9041460503405 80.34991220540414 H 0.0 **** 0.06
12840 H 58.25165214464019 69.44900582467261 80.12371703023848 H 0.0 **** 0.06
12841 C 111.56791537655059 51.62848936356781 3.7511038831759436 C 0.0 **** -0.24
12842 H 111.3744678270759 52.70054527118543 3.801634002173188 H 0.0 **** 0.06
12843 H 110.82491083806212 51.09670223664118 4.344705372551886 H 0.0 **** 0.06
12844 H 112.56341366768666 51.420742097859744 4.142772446599935 H 0.0 **** 0.06
12845 H 111.51021029792554 51.29885126000305 2.714361462286149 H 0.0 **** 0.06
12846 C 48.00578862073024 15.648768798389938 47.885973380713494 C 0.0 **** -0.24
12847 H 47.5485726754203 14.78216069973962 48.363921142002766 H 0.0 **** 0.06
12848 H 49.06789492318006 15.46058812036324 47.73221951531417 H 0.0 **** 0.06
12849 H 47.879671408156355 16.52338314948912 48.524936051745954 H 0.0 **** 0.06
12850 H 47.52463951027062 15.829433407169745 46.92458172841202 H 0.0 **** 0.06
12851 C 129.01777157128114 72.5115665683831 10.363387390017579 C 0.0 **** -0.24
12852 H 129.8343357439986 72.32592879703583 9.666630210683252 H 0.0 **** 0.06
12853 H 129.07987787515364 73.53651162950456 10.73114622499179 H 0.0 **** 0.06
12854 H 129.0904570481926 71.81982987726275 11.201892116584531 H 0.0 **** 0.06
12855 H 128.06572781295012 72.36624300096503 9.853189593882462 H 0.0 **** 0.06
12856 C 127.21136370434436 76.03914530436356 44.9657737783493 C 0.0 **** -0.24
12857 H 127.14403182276158 76.17918951629207 43.88738375128338 H 0.0 **** 0.06
12858 H 126.69007938678105 75.12340916175981 45.24698917446 H 0.0 **** 0.06
12859 H 126.75245409678725 76.88767759193593 45.47180927594425 H 0.0 **** 0.06
12860 H 128.25927842112148 75.9650194447089 45.257355996698976 H 0.0 **** 0.06
12861 C 18.641668931363107 135.5407547013742 18.153931299976534 C 0.0 **** -0.24
12862 H 19.568154489727185 135.14197343130107 17.74103777803282 H 0.0 **** 0.06
12863 H 18.69947154147573 136.62929154899518 18.190021726058603 H 0.0 **** 0.06
12864 H 18.496624503246046 135.1515710235511 19.161910099421988 H 0.0 **** 0.06
12865 H 17.804267240314154 135.2409085983562 17.523794973710494 H 0.0 **** 0.06
12866 C 129.45867057365223 48.13385654027363 113.414800804517 C 0.0 **** -0.24
12867 H 129.8920908438581 47.13487123651137 113.39367713976162 H 0.0 **** 0.06
12868 H 128.40181414918086 48.07801222021192 113.1530585770661 H 0.0 **** 0.06
12869 H 129.97791212561785 48.769930883746014 112.69793700863801 H 0.0 **** 0.06
12870 H 129.56346761810053 48.55405264281313 114.41613090711502 H 0.0 **** 0.06
12871 C 109.88371052896628 48.99989442508141 30.292618587921197 C 0.0 **** -0.24
12872 H 109.27353782978594 48.21464591745507 30.738281121994135 H 0.0 **** 0.06
12873 H 110.92807939989848 48.68859567217021 30.28570561056131 H 0.0 **** 0.06
12874 H 109.78053823532338 49.915316385967145 30.875253270482233 H 0.0 **** 0.06
12875 H 109.5512763570502 49.182035021557 29.270244182437466 H 0.0 **** 0.06
12876 C 88.63239182839004 3.4249362719326655 130.9785753573695 C 0.0 **** -0.24
12877 H 87.56598734520512 3.4228144048879017 130.75289186161115 H 0.0 **** 0.06
12878 H 89.17460007762884 3.8988799474534517 130.1602272174084 H 0.0 **** 0.06
12879 H 88.9800791329543 2.399570825901435 131.09940269119485 H 0.0 **** 0.06
12880 H 88.80796129506152 3.9789873939195672 131.9008523178699 H 0.0 **** 0.06
12881 C 121.44271044153062 59.645408572487725 42.69347964019285 C 0.0 **** -0.24
12882 H 121.5331105508928 58.569459265121395 42.84024794935331 H 0.0 **** 0.06
12883 H 121.04092852459928 60.101997988552114 43.5984495258403 H 0.0 **** 0.06
12884 H 120.77123455004802 59.84303948581598 41.85812211479743 H 0.0 **** 0.06
12885 H 122.42382388974258 60.0665923791571 42.47838761696466 H 0.0 **** 0.06
12886 C 78.32531886454302 117.18614137928225 119.49316915946554 C 0.0 **** -0.24
12887 H 77.95782174508946 118.06152134897388 120.03045113980312 H 0.0 **** 0.06
12888 H 77.71421698501882 116.32045702147536 119.74904639134971 H 0.0 **** 0.06
12889 H 79.36110152281105 116.99728320659989 119.77470942702661 H 0.0 **** 0.06
12890 H 78.26705433760648 117.36833633723296 118.42009353162888 H 0.0 **** 0.06
12891 C 121.79061821465908 5.557037555055388 15.668625894352033 C 0.0 **** -0.24
12892 H 120.97990495546247 5.5781785016347065 16.396107220123497 H 0.0 **** 0.06
12893 H 122.6089848549022 4.947871497429762 16.054217494936722 H 0.0 **** 0.06
12894 H 122.14564938840276 6.571650416414855 15.490947475328994 H 0.0 **** 0.06
12895 H 121.4287551151105 5.12994306554333 14.73296971352545 H 0.0 **** 0.06
12896 C 70.58606639665567 53.6124264579787 66.90185655909778 C 0.0 **** -0.24
12897 H 71.65600697883337 53.707981030759285 66.72089117882024 H 0.0 **** 0.06
12898 H 70.0356566264531 54.10307520548602 66.09831812715026 H 0.0 **** 0.06
12899 H 70.33491324297604 54.08225212462608 67.85318985127674 H 0.0 **** 0.06
12900 H 70.31581417482117 52.557322129451634 66.93582159163458 H 0.0 **** 0.06
12901 C 54.711889450287174 65.5114838206369 85.21484550480507 C 0.0 **** -0.24
12902 H 55.448558390648 66.22125890768228 85.59187505753455 H 0.0 **** 0.06
12903 H 55.184253268435626 64.53832326731177 85.07640028177865 H 0.0 **** 0.06
12904 H 54.32165319676392 65.8647057992305 84.2611627007839 H 0.0 **** 0.06
12905 H 53.89613407804619 65.42114570183662 85.93116889233299 H 0.0 **** 0.06
12906 C 51.49299298934625 9.678516180648444 78.9039162843138 C 0.0 **** -0.24
12907 H 50.54086060435918 10.171805571658808 78.70714336048798 H 0.0 **** 0.06
12908 H 52.090235444306586 9.66449018466352 77.99198492595627 H 0.0 **** 0.06
12909 H 51.31022295875789 8.655810852709578 79.2350945324495 H 0.0 **** 0.06
12910 H 52.02852606057439 10.222334860758167 79.68202079465163 H 0.0 **** 0.06
12911 C 42.16789843580523 62.65463591802701 95.85428819663696 C 0.0 **** -0.24
12912 H 41.95977374188635 63.16550962025477 94.91444182004199 H 0.0 **** 0.06
12913 H 43.20835397014923 62.82224662118138 96.13557643332598 H 0.0 **** 0.06
12914 H 41.990768736259895 61.58594253061108 95.73351744937332 H 0.0 **** 0.06
12915 H 41.51274278265356 63.045942961533896 96.63272698012634 H 0.0 **** 0.06
12916 C 37.233848977941676 11.295626786045943 2.559886858722102 C 0.0 **** -0.24
12917 H 37.293455892202395 10.34643758714546 2.025723004619465 H 0.0 **** 0.06
12918 H 36.20880154586988 11.461574705515233 2.891050117382221 H 0.0 **** 0.06
12919 H 37.538484402773115 12.104904403755825 1.8961338425589709 H 0.0 **** 0.06
12920 H 37.896151987148826 11.26637058597791 3.425461748187221 H 0.0 **** 0.06
12921 C 11.280495878107445 102.8220339447791 82.2445794646549 C 0.0 **** -0.24
12922 H 10.707592266517054 102.14305711823256 82.87645999225695 H 0.0 **** 0.06
12923 H 11.45741072795721 102.35317167112616 81.27591728001504 H 0.0 **** 0.06
12924 H 12.234884343155699 103.0426710903124 82.7222707375969 H 0.0 **** 0.06
12925 H 10.721567250581273 103.74658002971852 82.10496097704906 H 0.0 **** 0.06
12926 C 45.96934324767432 15.526604474914215 5.011096970774059 C 0.0 **** -0.24
12927 H 46.22481841356523 16.585026453590345 5.051201479117502 H 0.0 **** 0.06
12928 H 45.18792910037726 15.369133134299751 4.26813012305043 H 0.0 **** 0.06
12929 H 45.61313975116644 15.20177252200812 5.988769891397176 H 0.0 **** 0.06
12930 H 46.852775523833444 14.950247029144109 4.736815073320695 H 0.0 **** 0.06
12931 C 4.188557271007312 66.69136350683118 1.440557175627351 C 0.0 **** -0.24
12932 H 3.1148477283533964 66.83601133067656 1.5567072860701536 H 0.0 **** 0.06
12933 H 4.642865636633871 66.53489503544404 2.419580488296578 H 0.0 **** 0.06
12934 H 4.625923819014361 67.5739285358206 0.9738522040391544 H 0.0 **** 0.06
12935 H 4.371340865943353 65.8201931558837 0.8109672550955622 H 0.0 **** 0.06
12936 C 75.20786669267878 23.505586556983424 119.0158100609159 C 0.0 **** -0.24
12937 H 74.37246564996428 24.117248737629183 118.67499553651086 H 0.0 **** 0.06
12938 H 76.09097002850744 24.133462228005982 119.13879686453497 H 0.0 **** 0.06
12939 H 75.4131146884524 22.729087498343375 118.27932685988728 H 0.0 **** 0.06
12940 H 74.95473636569379 23.043921817070057 119.96983874698891 H 0.0 **** 0.06
12941 C 67.42457513043853 55.58349154766141 103.25020279045906 C 0.0 **** -0.24
12942 H 68.06669087184868 55.504159759589214 104.1267886979485 H 0.0 **** 0.06
12943 H 66.47036372289288 56.02512610067875 103.53815346410958 H 0.0 **** 0.06
12944 H 67.25550847798941 54.5908273788739 102.83336426157537 H 0.0 **** 0.06
12945 H 67.90652519684468 56.2144661060652 102.50244523022043 H 0.0 **** 0.06
12946 C 16.26468207264135 28.213411410872098 51.4592502549354 C 0.0 **** -0.24
12947 H 17.140046059691144 28.58708697007735 51.990031289174084 H 0.0 **** 0.06
12948 H 16.08958933063161 27.173506040983874 51.73553892432189 H 0.0 **** 0.06
12949 H 16.434730764177274 28.280826065392162 50.384554584529354 H 0.0 **** 0.06
12950 H 15.394133559350536 28.811832219766323 51.72776632803779 H 0.0 **** 0.06
12951 C 26.365435383230363 115.41646275049456 71.32325707898354 C 0.0 **** -0.24
12952 H 26.663503766731374 116.435839752899 71.57204395454502 H 0.0 **** 0.06
12953 H 25.40503521712668 115.19517051834788 71.79015791204762 H 0.0 **** 0.06
12954 H 27.117448436523702 114.71933833160224 71.69091304323297 H 0.0 **** 0.06
12955 H 26.276024217879232 115.31829487465188 70.24137271657082 H 0.0 **** 0.06
12956 C 63.8129993002007 131.68493079265778 90.8143888762493 C 0.0 **** -0.24
12957 H 64.13305840306785 132.45676437910817 91.513934529351 H 0.0 **** 0.06
12958 H 64.23783054374096 130.72592775299916 91.11257286590669 H 0.0 **** 0.06
12959 H 64.1560390967367 131.938134707708 89.81160849017338 H 0.0 **** 0.06
12960 H 62.725069157257096 131.61889633081591 90.81943961956623 H 0.0 **** 0.06
12961 C 119.47312172911055 108.01101931931123 119.23505315367632 C 0.0 **** -0.24
12962 H 119.14148083090251 108.62179135788227 120.0747149257135 H 0.0 **** 0.06
12963 H 120.3192044861502 108.49415112283106 118.74576314034218 H 0.0 **** 0.06
12964 H 118.65532922425427 107.90060040512589 118.52168142278069 H 0.0 **** 0.06
12965 H 119.77500438469554 107.02819331178745 119.59741205875953 H 0.0 **** 0.06
12966 C 136.6752834305474 127.32021657321692 73.74961001367231 C 0.0 **** -0.24
12967 H 137.13768510982155 127.95783248595762 74.5027976902954 H 0.0 **** 0.06
12968 H 137.09143802309163 126.31543507014052 73.81853403766995 H 0.0 **** 0.06
12969 H 136.8718682490775 127.728818601608 72.7581949280361 H 0.0 **** 0.06
12970 H 135.59841217104776 127.28123095429542 73.91893382905357 H 0.0 **** 0.06
12971 C 11.699945357258116 22.311599367963424 45.465741035875965 C 0.0 **** -0.24
12972 H 11.326424453938444 21.69410080555663 44.64896951675982 H 0.0 **** 0.06
12973 H 12.631560449296671 21.889842252294386 45.8435456639119 H 0.0 **** 0.06
12974 H 10.962097712137847 22.339743678356385 46.267517070740155 H 0.0 **** 0.06
12975 H 11.879907964270103 23.32358000607357 45.10248392859748 H 0.0 **** 0.06
12976 C 109.8317709853387 15.882737506233184 25.988910686805042 C 0.0 **** -0.24
12977 H 110.44771218155836 15.154630736418198 25.460518725219316 H 0.0 **** 0.06
12978 H 110.15160436180025 16.890467375418098 25.72232820445518 H 0.0 **** 0.06
12979 H 109.94220713150102 15.73852865851552 27.063924990429285 H 0.0 **** 0.06
12980 H 108.78709795568386 15.746120968370349 25.70930695234246 H 0.0 **** 0.06
12981 C 41.56192576449246 132.95662140187943 51.09268102452792 C 0.0 **** -0.24
12982 H 42.1640390878967 133.64752216474844 51.6831645251207 H 0.0 **** 0.06
12983 H 41.17954349294976 133.47076131567647 50.210508115775724 H 0.0 **** 0.06
12984 H 40.72841409381323 132.5960227331726 51.69502140415639 H 0.0 **** 0.06
12985 H 42.178592031422966 132.11247272363565 50.78328999595968 H 0.0 **** 0.06
12986 C 70.45862257162219 23.90863982141712 49.75092917938271 C 0.0 **** -0.24
12987 H 70.06264918548999 24.13087626403091 48.759344506169796 H 0.0 **** 0.06
12988 H 71.52058656209272 24.14984241488815 49.78013180406528 H 0.0 **** 0.06
12989 H 70.31890670680804 22.84969969519892 49.96761867008972 H 0.0 **** 0.06
12990 H 69.92936763029954 24.504618945134126 50.4944102829367 H 0.0 **** 0.06
12991 C 34.81120281801108 121.88863687508456 105.37355707944482 C 0.0 **** -0.24
12992 H 35.164756567996605 122.1502067990579 106.37137821935545 H 0.0 **** 0.06
12993 H 33.81267698763871 122.29881613504153 105.22338653964283 H 0.0 **** 0.06
12994 H 34.77787207421552 120.80378931892346 105.27427016105503 H 0.0 **** 0.06
12995 H 35.49040282012946 122.30145346289002 104.62837399186867 H 0.0 **** 0.06
12996 C 59.93931487980019 58.496434579264445 84.1884548169022 C 0.0 **** -0.24
12997 H 59.672922520625036 57.682003929206715 83.51428353305545 H 0.0 **** 0.06
12998 H 59.167328576922316 58.60323530066471 84.95007991189297 H 0.0 **** 0.06
12999 H 60.023693711659774 59.42370422250542 83.62275239448253 H 0.0 **** 0.06
13000 H 60.8941513779791 58.27322237964768 84.66596995273808 H 0.0 **** 0.06
13001 C 51.86444577256742 54.80116172644901 85.95960107202612 C 0.0 **** -0.24
13002 H 52.098765001953325 53.925273552071815 86.56337785066863 H 0.0 **** 0.06
13003 H 52.489098853658334 54.804477457925714 85.06617921753482 H 0.0 **** 0.06
13004 H 52.05592113889105 55.70391465938519 86.54029240280798 H 0.0 **** 0.06
13005 H 50.81432697806193 54.771504825210314 85.66934077991303 H 0.0 **** 0.06
13006 C 28.12932887237163 49.58585160598409 73.60774197137783 C 0.0 **** -0.24
13007 H 28.70377811359711 50.475996291025666 73.86457378504596 H 0.0 **** 0.06
13008 H 28.78418338140966 48.71422709805097 73.62231531115108 H 0.0 **** 0.06
13009 H 27.703866571118226 49.70441234727559 72.61119480925777 H 0.0 **** 0.06
13010 H 27.32658693786692 49.44964987259934 74.33187490097103 H 0.0 **** 0.06
13011 C 126.59875449329593 73.65674366426077 125.96670949906239 C 0.0 **** -0.24
13012 H 125.8842803638392 72.89715975148123 126.28559522657734 H 0.0 **** 0.06
13013 H 127.24269889236848 73.24589503074243 125.18926878585643 H 0.0 **** 0.06
13014 H 127.20602999055654 73.96497096525046 126.81817675902678 H 0.0 **** 0.06
13015 H 126.05981521186891 74.51989753153903 125.57433470814004 H 0.0 **** 0.06
13016 C 134.29946473824288 106.79032490770605 130.2214168145655 C 0.0 **** -0.24
13017 H 134.49120771042672 107.69337275117617 129.6416441862658 H 0.0 **** 0.06
13018 H 134.38137191118415 107.01887915910878 131.28518527829598 H 0.0 **** 0.06
13019 H 135.02962774823692 106.02608275713854 129.9562245267823 H 0.0 **** 0.06
13020 H 133.2954658787895 106.42618609220594 130.00422275305468 H 0.0 **** 0.06
13021 C 16.613652707698307 107.56602525218794 97.21184943994302 C 0.0 **** -0.24
13022 H 15.774523882435737 108.26183281186246 97.19488659308021 H 0.0 **** 0.06
13023 H 17.285221518749168 107.78651217291517 96.38186333770778 H 0.0 **** 0.06
13024 H 16.24086755876815 106.54648307888938 97.11899469853518 H 0.0 **** 0.06
13025 H 17.15302760426669 107.67126451924989 98.1534117054099 H 0.0 **** 0.06
13026 C 66.6554537453201 15.972558166188065 49.80456259960454 C 0.0 **** -0.24
13027 H 66.43015014906797 16.661235154597932 50.61781426965612 H 0.0 **** 0.06
13028 H 65.79339483282843 15.900982972274676 49.140276101383364 H 0.0 **** 0.06
13029 H 66.8826977685728 14.988070735018539 50.21362337441626 H 0.0 **** 0.06
13030 H 67.51588910903112 16.34047171173549 49.244386971091444 H 0.0 **** 0.06
13031 C 92.94002341593259 45.168583088270054 35.195457808145704 C 0.0 **** -0.24
13032 H 92.63600269630592 46.117517976582334 34.75497740307969 H 0.0 **** 0.06
13033 H 92.05443301731282 44.60751374565547 35.496406261730726 H 0.0 **** 0.06
13034 H 93.56491962824501 45.35803069380409 36.06913879378766 H 0.0 **** 0.06
13035 H 93.50487463448405 44.59199983806389 34.46251241681233 H 0.0 **** 0.06
13036 C 122.13551738983625 109.9094580105299 88.58106695131633 C 0.0 **** -0.24
13037 H 122.55509788079434 109.91202554346734 87.57493093001693 H 0.0 **** 0.06
13038 H 121.21821357838019 110.49965242482136 88.59312584691604 H 0.0 **** 0.06
13039 H 122.8552324660759 110.34083342555738 89.2761234089877 H 0.0 **** 0.06
13040 H 121.91141759884414 108.88462169697067 88.87833604141878 H 0.0 **** 0.06
13041 C 81.88788202124273 127.45153280725143 131.99198328881533 C 0.0 **** -0.24
13042 H 81.24606329084214 127.62448523522687 131.12691604672585 H 0.0 **** 0.06
13043 H 81.64481116234296 128.17139129033805 132.77383008015374 H 0.0 **** 0.06
13044 H 82.93133907015165 127.57123747235562 131.69902718015697 H 0.0 **** 0.06
13045 H 81.72809742549336 126.44026410507146 132.3653377223082 H 0.0 **** 0.06
13046 C 5.820141602951853 61.03588164258622 106.73941639575727 C 0.0 **** -0.24
13047 H 5.233989120801194 61.77236920576601 107.29010092578889 H 0.0 **** 0.06
13048 H 6.795928922164766 60.92169220521326 107.21024108188357 H 0.0 **** 0.06
13049 H 5.949376718156039 61.370857297620674 105.70985547253508 H 0.0 **** 0.06
13050 H 5.298863883654356 60.07849164701011 106.74703286709308 H 0.0 **** 0.06
13051 C 49.852404158266864 62.375218504740474 114.41600266208854 C 0.0 **** -0.24
13052 H 49.34795091309911 63.18946255100343 114.93598978390688 H 0.0 **** 0.06
13053 H 49.70679285221618 61.44692244431718 114.96873392556148 H 0.0 **** 0.06
13054 H 50.91851522057685 62.59378827709503 114.34650036019795 H 0.0 **** 0.06
13055 H 49.4374242877967 62.271325853422866 113.41347331871921 H 0.0 **** 0.06
13056 C 40.54751098317328 109.22284418805023 70.44534291021375 C 0.0 **** -0.24
13057 H 40.714136075050135 109.9332988884322 69.63575088196592 H 0.0 **** 0.06
13058 H 41.19166830009448 108.3547865374803 70.30462569135545 H 0.0 **** 0.06
13059 H 39.50364180916631 108.90712141839413 70.44071682702952 H 0.0 **** 0.06
13060 H 40.77836873333831 109.69777665478097 71.39907396748856 H 0.0 **** 0.06
13061 C 33.018094268939564 72.83410014665142 61.668259954396376 C 0.0 **** -0.24
13062 H 32.647655269176596 72.13644037239446 62.418077772028084 H 0.0 **** 0.06
13063 H 32.35947479264067 73.70190620036334 61.62181489929796 H 0.0 **** 0.06
13064 H 33.04018823334391 72.34296644899158 60.6950674543604 H 0.0 **** 0.06
13065 H 34.02460249451374 73.15486309109073 61.93568350897253 H 0.0 **** 0.06
13066 C 72.30512277492815 116.7931662641036 85.69088898867845 C 0.0 **** -0.24
13067 H 72.09650562753481 117.71496744453609 86.23445734624276 H 0.0 **** 0.06
13068 H 72.48334228423045 115.98607881922786 86.40158986206073 H 0.0 **** 0.06
13069 H 73.18952280485443 116.93067521928563 85.06770282240879 H 0.0 **** 0.06
13070 H 71.45201079132025 116.54248808936737 85.06148578161016 H 0.0 **** 0.06
13071 C 98.04987887731045 23.563355827540647 108.63464015426536 C 0.0 **** -0.24
13072 H 96.99582830251035 23.838437602249087 108.6448579982827 H 0.0 **** 0.06
13073 H 98.16100820789802 22.535300114469806 108.97776073443606 H 0.0 **** 0.06
13074 H 98.6053494773843 24.22988707416738 109.29477771137886 H 0.0 **** 0.06
13075 H 98.43725041273402 23.651491509979394 107.61939561355885 H 0.0 **** 0.06
13076 C 92.3505375298965 102.85638785320776 58.942146204248445 C 0.0 **** -0.24
13077 H 92.07059432351889 103.15500551624359 59.95270267723021 H 0.0 **** 0.06
13078 H 91.54274127812076 103.10602361225256 58.25317426601771 H 0.0 **** 0.06
13079 H 92.52951515235976 101.78139122642807 58.918687101759076 H 0.0 **** 0.06
13080 H 93.25746233384443 103.38315638166102 58.64564094209055 H 0.0 **** 0.06
13081 C 103.88219412436861 90.86741682759248 127.82230683378546 C 0.0 **** -0.24
13082 H 103.04521679875471 91.45188862518404 128.2051563660188 H 0.0 **** 0.06
13083 H 103.7471998678149 90.69842885150581 126.75335232649141 H 0.0 **** 0.06
13084 H 103.92159555478838 89.90871998442609 128.34010310911285 H 0.0 **** 0.06
13085 H 104.81145218818428 91.41079153631841 127.99054889543703 H 0.0 **** 0.06
13086 C 43.804608275083055 104.60201415502095 91.3332400365893 C 0.0 **** -0.24
13087 H 44.443319819538296 104.43886227768158 92.2007802649292 H 0.0 **** 0.06
13088 H 43.270168319102645 103.68100338956917 91.09774434063362 H 0.0 **** 0.06
13089 H 44.41757957783009 104.89496254572164 90.48094168631741 H 0.0 **** 0.06
13090 H 43.08731025074119 105.39223649951794 91.55360842328344 H 0.0 **** 0.06
13091 C 34.30428147729242 2.462285262207864 49.83308187110134 C 0.0 **** -0.24
13092 H 34.544788808533326 1.4820064727353568 49.42215272933652 H 0.0 **** 0.06
13093 H 33.564112348872754 2.3528630601293656 50.62663122160831 H 0.0 **** 0.06
13094 H 33.900221166610436 3.097002245537965 49.044416112205255 H 0.0 **** 0.06
13095 H 35.208003585153165 2.917269270428939 50.23912742125526 H 0.0 **** 0.06
13096 C 46.54915373716017 102.57692774580818 74.33179156120006 C 0.0 **** -0.24
13097 H 46.99468018267203 102.70874620532976 73.34522874430185 H 0.0 **** 0.06
13098 H 46.76296932152769 103.45081896317492 74.94610502909501 H 0.0 **** 0.06
13099 H 46.970365860636434 101.68836232132381 74.8029507009795 H 0.0 **** 0.06
13100 H 45.47098815114373 102.457750111487 74.23020578613107 H 0.0 **** 0.06
13101 C 71.77239149767703 101.9330408600297 92.10336518184621 C 0.0 **** -0.24
13102 H 70.69014242087898 101.91655256339706 91.97648290575836 H 0.0 **** 0.06
13103 H 72.02825095770784 102.54835765302963 92.96641864579567 H 0.0 **** 0.06
13104 H 72.23657951815589 102.34948055584383 91.20974082377839 H 0.0 **** 0.06
13105 H 72.13540963290201 100.91649586831154 92.2616569140051 H 0.0 **** 0.06
13106 C 95.34074513267655 107.11378657521897 20.7880335134638 C 0.0 **** -0.24
13107 H 94.31435787320405 107.20243238033225 20.432919242072444 H 0.0 **** 0.06
13108 H 95.4067454308367 107.49476644207357 21.807352591365003 H 0.0 **** 0.06
13109 H 96.00021428667375 107.69173293916774 20.140602824890635 H 0.0 **** 0.06
13110 H 95.64166293999187 106.06621453930231 20.77125939552721 H 0.0 **** 0.06
13111 C 18.72082035730014 40.97319576727813 79.82959160976213 C 0.0 **** -0.24
13112 H 17.747459648481254 41.46068244944465 79.89045012106695 H 0.0 **** 0.06
13113 H 19.18828996674013 40.96997420602793 80.81431230760893 H 0.0 **** 0.06
13114 H 19.354472457374627 41.51450745712661 79.12729842598893 H 0.0 **** 0.06
13115 H 18.59091793369396 39.946842561733575 79.48435316634885 H 0.0 **** 0.06
13116 C 13.37635647281735 83.78955436133484 78.23678886301275 C 0.0 **** -0.24
13117 H 13.684831780979579 83.67464164556486 77.1977151838249 H 0.0 **** 0.06
13118 H 13.738136826075959 82.9417178943512 78.81872818568257 H 0.0 **** 0.06
13119 H 12.288229807879418 83.82971659513419 78.28921434144766 H 0.0 **** 0.06
13120 H 13.794811738785938 84.71223511563306 78.63934133907472 H 0.0 **** 0.06
13121 C 1.5004230345498435 133.57544004343072 106.7125803724844 C 0.0 **** -0.24
13122 H 0.5458028327056539 133.80980542595634 106.24206025919409 H 0.0 **** 0.06
13123 H 1.4715540029689151 133.87475523403458 107.76057468827544 H 0.0 **** 0.06
13124 H 2.2980299249557916 134.11519419782996 106.20158058033168 H 0.0 **** 0.06
13125 H 1.685646477134874 132.50394822625452 106.64476759460078 H 0.0 **** 0.06
13126 C 35.327880049025 30.6247295124368 130.52768753687994 C 0.0 **** -0.24
13127 H 35.17494517655706 31.607503503880082 130.08173320212987 H 0.0 **** 0.06
13128 H 36.382048451318326 30.355506417679237 130.45937954808653 H 0.0 **** 0.06
13129 H 34.72857629980717 29.886540673623813 129.9954626958108 H 0.0 **** 0.06
13130 H 35.026058126446685 30.650119139714263 131.57573145295652 H 0.0 **** 0.06
13131 C 55.277524264922135 75.8949961397185 2.343207758649328 C 0.0 **** -0.24
13132 H 56.052482641063236 76.21049522347799 1.6448977355858574 H 0.0 **** 0.06
13133 H 54.389941777292634 75.58903055079635 1.787934380866659 H 0.0 **** 0.06
13134 H 55.024271122660835 76.72550755968193 3.003463594583536 H 0.0 **** 0.06
13135 H 55.64199172906642 75.05776486005483 2.9375824436083917 H 0.0 **** 0.06
13136 C 101.8831721122787 25.572032752096504 68.10902010564178 C 0.0 **** -0.24
13137 H 102.34100028619788 25.419690091082835 67.13181791478826 H 0.0 **** 0.06
13138 H 101.34980595566917 26.52203350793728 68.1159568907251 H 0.0 **** 0.06
13139 H 102.65907530551955 25.58482170628826 68.87531430448007 H 0.0 **** 0.06
13140 H 101.18492227633322 24.760942410339652 68.31332537314643 H 0.0 **** 0.06
13141 C 102.92676508528206 48.883471242576746 75.76698433779802 C 0.0 **** -0.24
13142 H 103.70055794450263 49.55863311131722 75.4015173396034 H 0.0 **** 0.06
13143 H 102.21367208695568 48.681905274597554 74.96725524260489 H 0.0 **** 0.06
13144 H 102.40951757771552 49.345695290434904 76.6080533183731 H 0.0 **** 0.06
13145 H 103.38412986361058 47.947956395595384 76.0906223134183 H 0.0 **** 0.06
13146 C 104.38073735066159 14.6714395935237 25.36578508320423 C 0.0 **** -0.24
13147 H 103.55173287849301 14.223073683620953 25.914693751690265 H 0.0 **** 0.06
13148 H 105.03115376943794 13.883159084770682 24.984039777038873 H 0.0 **** 0.06
13149 H 104.94811714075155 15.320325075507924 26.03204014675495 H 0.0 **** 0.06
13150 H 103.99090737820539 15.255750144479464 24.532234341698327 H 0.0 **** 0.06
13151 C 104.72352983564673 77.90676090140457 54.90700814428271 C 0.0 **** -0.24
13152 H 103.8746171239884 77.28742566066072 55.197924222500404 H 0.0 **** 0.06
13153 H 105.05387750650766 77.62214429190655 53.90778850588788 H 0.0 **** 0.06
13154 H 105.53884936291524 77.76039974563133 55.61455636288861 H 0.0 **** 0.06
13155 H 104.42513180872209 78.95491755942584 54.90647921359795 H 0.0 **** 0.06
13156 C 45.44953703035652 74.62210495676302 77.84859678071888 C 0.0 **** -0.24
13157 H 45.782908513701045 74.40599554603966 78.86372300374235 H 0.0 **** 0.06
13158 H 44.414500336022975 74.96486296183951 77.87251562868722 H 0.0 **** 0.06
13159 H 45.520130572391196 73.71901741085495 77.243592295127 H 0.0 **** 0.06
13160 H 46.079873099240416 75.39899390167534 77.41725003445414 H 0.0 **** 0.06
13161 C 90.99155584466841 20.10401791421556 99.8600729503469 C 0.0 **** -0.24
13162 H 90.32161624140775 20.792323391985065 99.34555130584721 H 0.0 **** 0.06
13163 H 90.40522843516386 19.373585389160397 100.41685344624132 H 0.0 **** 0.06
13164 H 91.62610191563844 20.66180520300805 100.54962188947623 H 0.0 **** 0.06
13165 H 91.614215505133 19.58905511117844 99.12906044564146 H 0.0 **** 0.06
13166 C 122.9489510626378 127.63889367713608 104.13102191977542 C 0.0 **** -0.24
13167 H 122.5609790197499 128.5707138135317 104.54269290200641 H 0.0 **** 0.06
13168 H 123.74851229659151 127.85890303068408 103.42363392210514 H 0.0 **** 0.06
13169 H 122.14615941326468 127.1068638012315 103.61986648990498 H 0.0 **** 0.06
13170 H 123.33726820139988 127.01944735795615 104.93863634283673 H 0.0 **** 0.06
13171 C 115.85013039881963 67.79010380688135 82.2884371484584 C 0.0 **** -0.24
13172 H 115.4485677731189 68.76869071191885 82.02746945471746 H 0.0 **** 0.06
13173 H 115.62884659536681 67.57346812937757 83.33340485702414 H 0.0 **** 0.06
13174 H 116.9306448997308 67.78930091744411 82.137573199512 H 0.0 **** 0.06
13175 H 115.39488210823743 67.0285866105022 81.65520684506744 H 0.0 **** 0.06
13176 C 55.528689257374936 52.97472484409914 29.87205239624734 C 0.0 **** -0.24
13177 H 55.23892367667324 53.985463207909746 29.58480698144524 H 0.0 **** 0.06
13178 H 55.75425977655294 52.39347817645843 28.97676729399592 H 0.0 **** 0.06
13179 H 54.709768012977975 52.50217685143876 30.414613417141823 H 0.0 **** 0.06
13180 H 56.41091760564544 53.01595561479067 30.51065102959481 H 0.0 **** 0.06
13181 C 81.19377445718885 47.74317907268028 45.548871089425774 C 0.0 **** -0.24
13182 H 80.2849416673433 48.341110638711655 45.60977119486205 H 0.0 **** 0.06
13183 H 81.6556197534277 47.88114565026916 44.5708791466283 H 0.0 **** 0.06
13184 H 80.94522854907633 46.69003510910457 45.68828015751268 H 0.0 **** 0.06
13185 H 81.88843037931261 48.057651595342776 46.32728820793818 H 0.0 **** 0.06
13186 C 69.77172411972498 52.60571255810049 93.61322144941039 C 0.0 **** -0.24
13187 H 69.69187424427815 52.28385351075033 94.65099732086719 H 0.0 **** 0.06
13188 H 68.85429506446872 52.352957076872144 93.08146053722726 H 0.0 **** 0.06
13189 H 70.61581930699941 52.103594390529324 93.14094536262724 H 0.0 **** 0.06
13190 H 69.92611661880483 53.684223159281956 93.57830859159083 H 0.0 **** 0.06
13191 C 59.298309077848586 131.53831143630265 102.30919877277594 C 0.0 **** -0.24
13192 H 59.51397322489069 130.8596690445017 101.48376218773164 H 0.0 **** 0.06
13193 H 58.85076500361377 132.45354278684155 101.92105194281041 H 0.0 **** 0.06
13194 H 60.224475299888695 131.7802838157313 102.83183308325344 H 0.0 **** 0.06
13195 H 58.60627289811852 131.05924626611917 103.00206713559601 H 0.0 **** 0.06
13196 C 79.79192008418903 123.70402333684888 71.81226282843096 C 0.0 **** -0.24
13197 H 79.89136542074783 123.0284824653022 72.66204764270817 H 0.0 **** 0.06
13198 H 79.37162103759347 124.65242546563155 72.14913260262232 H 0.0 **** 0.06
13199 H 79.13078436192468 123.25712342731808 71.0694646653457 H 0.0 **** 0.06
13200 H 80.77226954684691 123.877583978876 71.36984939905771 H 0.0 **** 0.06
13201 C 60.09958402721162 77.72522873274096 100.10296777527896 C 0.0 **** -0.24
13202 H 61.077644901154 77.84865873533226 100.56796994886594 H 0.0 **** 0.06
13203 H 60.16280014057378 76.9727777973012 99.31712723351467 H 0.0 **** 0.06
13204 H 59.77945859640346 78.67510329158665 99.67341667666147 H 0.0 **** 0.06
13205 H 59.37771725715683 77.40630162496706 100.85530078725515 H 0.0 **** 0.06
13206 C 33.92064566826761 132.80278750797143 102.91980886495504 C 0.0 **** -0.24
13207 H 33.70763398401317 132.18846444227063 103.7947410126532 H 0.0 **** 0.06
13208 H 34.99960414606798 132.92685771552405 102.81765537431093 H 0.0 **** 0.06
13209 H 33.452406104234115 133.77970770021028 103.03956989411533 H 0.0 **** 0.06
13210 H 33.524729650571146 132.31658967321636 102.02887273999129 H 0.0 **** 0.06
13211 C 4.807717082406498 70.01566882602367 134.1858808112855 C 0.0 **** -0.24
13212 H 4.191838266759248 69.45587132647125 133.4822316857554 H 0.0 **** 0.06
13213 H 4.167928162053272 70.61257240328139 134.83502352908437 H 0.0 **** 0.06
13214 H 5.480958604663073 70.67357509550395 133.6352908476579 H 0.0 **** 0.06
13215 H 5.392444287151392 69.32104369742643 134.7890914681122 H 0.0 **** 0.06
13216 C 37.628734050957384 61.32501342922947 103.2309448341341 C 0.0 **** -0.24
13217 H 36.62807206595399 61.44929918162035 102.81533351290838 H 0.0 **** 0.06
13218 H 37.61664947624526 61.59104105749458 104.28870066744958 H 0.0 **** 0.06
13219 H 38.325591150823165 61.97358439898005 102.70072609794039 H 0.0 **** 0.06
13220 H 37.94079705473668 60.28684609003031 103.12097992780377 H 0.0 **** 0.06
13221 C 27.01568132670039 41.767154655051186 84.32829893395173 C 0.0 **** -0.24
13222 H 27.01468302394119 40.90476373189325 83.66167088073017 H 0.0 **** 0.06
13223 H 27.71270553282349 42.516100051140526 83.95221634178709 H 0.0 **** 0.06
13224 H 27.323077548117908 41.45324453854446 85.32710731484163 H 0.0 **** 0.06
13225 H 26.013718647745975 42.19331406728531 84.37376303279729 H 0.0 **** 0.06
13226 C 136.75851420625386 25.96255701352584 6.772578091689411 C 0.0 **** -0.24
13227 H 137.3279638691899 26.446801348513816 7.566181638196525 H 0.0 **** 0.06
13228 H 137.44547341118016 25.554521375775494 6.03020480497355 H 0.0 **** 0.06
13229 H 136.1024689338265 26.691921481433553 6.299819134271104 H 0.0 **** 0.06
13230 H 136.16017884359616 25.155350422728873 7.195596289085074 H 0.0 **** 0.06
13231 C 13.51485813556365 57.64540822587186 37.050821067852155 C 0.0 **** -0.24
13232 H 14.261959021448284 57.6563073675443 36.25819412894998 H 0.0 **** 0.06
13233 H 12.879359528110033 56.766756259599674 36.93926697971176 H 0.0 **** 0.06
13234 H 12.904563724338253 58.54619741300637 36.98703528018592 H 0.0 **** 0.06
13235 H 14.013706816630538 57.61308972500217 38.019996294726525 H 0.0 **** 0.06
13236 C 48.484049406756014 86.27150249158001 70.49526476520316 C 0.0 **** -0.24
13237 H 47.749700746705514 86.7525101231401 71.1408193578547 H 0.0 **** 0.06
13238 H 49.48351029003072 86.43595549630459 70.89695392073992 H 0.0 **** 0.06
13239 H 48.41984075483211 86.69509682402824 69.4924974948546 H 0.0 **** 0.06
13240 H 48.281945217506035 85.20071548586247 70.45004076067136 H 0.0 **** 0.06
13241 C 6.409701110035186 9.414194473739343 12.33565678571155 C 0.0 **** -0.24
13242 H 7.185979202542075 9.330368972412145 11.575265664248235 H 0.0 **** 0.06
13243 H 5.581027323326598 10.005548636532893 11.94481907008398 H 0.0 **** 0.06
13244 H 6.819492387662542 9.90249680585967 13.219795350376955 H 0.0 **** 0.06
13245 H 6.053202051431178 8.419626191118113 12.601971208086482 H 0.0 **** 0.06
13246 C 98.77665463858787 83.41904940823001 72.86149298429348 C 0.0 **** -0.24
13247 H 98.72368449344549 84.26595461316194 72.1770612361218 H 0.0 **** 0.06
13248 H 99.2824526074152 82.58738951660148 72.36986471868084 H 0.0 **** 0.06
13249 H 97.7690293172748 83.11619996379024 73.14282801307286 H 0.0 **** 0.06
13250 H 99.33272563156214 83.70816692161299 73.7530417242466 H 0.0 **** 0.06
13251 C 45.429018370516225 115.87567452580029 18.20777261596818 C 0.0 **** -0.24
13252 H 45.40621678299493 116.59958329304425 17.392201453448457 H 0.0 **** 0.06
13253 H 44.55128150951719 115.23119958765119 18.144517607275148 H 0.0 **** 0.06
13254 H 45.42569409476075 116.40328620352344 19.16076834433799 H 0.0 **** 0.06
13255 H 46.33192635054495 115.27007316712144 18.129860908698696 H 0.0 **** 0.06
13256 C 5.50593016894123 31.473955924204418 25.25979241319709 C 0.0 **** -0.24
13257 H 6.1465903716648995 32.0773377357979 25.903697688461932 H 0.0 **** 0.06
13258 H 6.083570734674783 30.650343819175703 24.84066532123282 H 0.0 **** 0.06
13259 H 5.1180752384078865 32.093928361735536 24.451204251627217 H 0.0 **** 0.06
13260 H 4.675470535972799 31.076596801692602 25.843035561770137 H 0.0 **** 0.06
13261 C 51.32128171333159 117.25177809420586 46.52656883723017 C 0.0 **** -0.24
13262 H 52.04856852161022 117.63790082021313 47.240547259097184 H 0.0 **** 0.06
13263 H 51.593925531830806 117.57506742867216 45.52133131591245 H 0.0 **** 0.06
13264 H 50.33131195376774 117.6331793523257 46.77437311932607 H 0.0 **** 0.06
13265 H 51.31229629401582 116.16267379465756 46.5689615872451 H 0.0 **** 0.06
13266 C 74.51598996072948 135.6337267076915 21.94586368725504 C 0.0 **** -0.24
13267 H 74.82420665297877 136.4627805942232 21.309707153318925 H 0.0 **** 0.06
13268 H 75.04487750974369 135.6896743452242 22.898056918741645 H 0.0 **** 0.06
13269 H 74.75405434202494 134.69064585832416 21.453505137143054 H 0.0 **** 0.06
13270 H 73.44159915928127 135.69088994420298 22.122931105601026 H 0.0 **** 0.06
13271 C 92.26827854342783 121.06597352284972 116.07003505326827 C 0.0 **** -0.24
13272 H 92.64126685910382 120.38234714568634 115.30688645055449 H 0.0 **** 0.06
13273 H 93.10115871650602 121.63131156374229 116.48869911980901 H 0.0 **** 0.06
13274 H 91.78072720914622 120.49565319016482 116.86046876991264 H 0.0 **** 0.06
13275 H 91.5515286631768 121.75304721647815 115.62180816216488 H 0.0 **** 0.06
13276 C 23.34952967275882 101.92053971788228 20.896668603425212 C 0.0 **** -0.24
13277 H 22.45923446360547 102.0085560331579 21.519225125793838 H 0.0 **** 0.06
13278 H 24.093243520188054 101.31026670330827 21.409332855137365 H 0.0 **** 0.06
13279 H 23.760987869064138 102.91267046768216 20.708212142156015 H 0.0 **** 0.06
13280 H 23.08501676208661 101.45192675619839 19.948093918796758 H 0.0 **** 0.06
13281 C 52.068851495574876 101.11287765001612 95.98926980755343 C 0.0 **** -0.24
13282 H 52.857768819785264 100.83310863590833 95.29006248254831 H 0.0 **** 0.06
13283 H 51.118906597289 100.70246717339768 95.64742338927988 H 0.0 **** 0.06
13284 H 51.998485087124095 102.19909780591917 96.04208439581629 H 0.0 **** 0.06
13285 H 52.30218376349234 100.71572623232964 96.97741144160798 H 0.0 **** 0.06
13286 C 82.48855917386182 50.455591480755245 90.35318464084797 C 0.0 **** -0.24
13287 H 82.73359650032542 49.98311807179202 89.40236256872373 H 0.0 **** 0.06
13288 H 82.09309683886308 49.70526874789638 91.03933804668247 H 0.0 **** 0.06
13289 H 81.73898243357694 51.230678098145845 90.19223580553977 H 0.0 **** 0.06
13290 H 83.38672970774573 50.900653158702994 90.77959968283255 H 0.0 **** 0.06
13291 C 97.91420107108944 70.04512400905297 32.01629638520046 C 0.0 **** -0.24
13292 H 98.90817699413658 69.71219391843243 31.717481255272332 H 0.0 **** 0.06
13293 H 97.90905303644469 71.13066931390172 32.111501021349795 H 0.0 **** 0.06
13294 H 97.65383940902801 69.59427530200588 32.97395932867886 H 0.0 **** 0.06
13295 H 97.18790175029183 69.74161877814566 31.26277471882969 H 0.0 **** 0.06
13296 C 106.39717319171514 8.013175709072897 121.21339593271779 C 0.0 **** -0.24
13297 H 106.10682123154106 7.099235213638877 121.73195508081324 H 0.0 **** 0.06
13298 H 107.14198803030185 8.54518550081005 121.80537355481403 H 0.0 **** 0.06
13299 H 105.52058636113581 8.646778837544673 121.07672594336225 H 0.0 **** 0.06
13300 H 106.81875392758253 7.759845144814761 120.2405067381398 H 0.0 **** 0.06
13301 C 90.55752061106416 63.75361718465996 89.71785781008941 C 0.0 **** -0.24
13302 H 90.6775955597698 64.81229961163012 89.95052849098077 H 0.0 **** 0.06
13303 H 91.2485698900694 63.16888789667132 90.32569385179019 H 0.0 **** 0.06
13304 H 90.77033130852857 63.586852601741185 88.66217309481803 H 0.0 **** 0.06
13305 H 89.53388574540713 63.44820119993847 89.93582299937785 H 0.0 **** 0.06
13306 C 43.40673764713196 20.786491015067895 14.116018710219862 C 0.0 **** -0.24
13307 H 43.07811378691673 20.882291666230742 13.080717450628988 H 0.0 **** 0.06
13308 H 43.570428536527004 19.73406708870249 14.349242348347438 H 0.0 **** 0.06
13309 H 42.64179881021215 21.191865050348667 14.778483455832522 H 0.0 **** 0.06
13310 H 44.336437088544045 21.338514421312198 14.25446066803476 H 0.0 **** 0.06
13311 C 12.085954179609601 58.93476235895588 10.937881887458655 C 0.0 **** -0.24
13312 H 12.892792094515315 58.2101898161863 11.045859895915306 H 0.0 **** 0.06
13313 H 11.396777908020013 58.596329367817646 10.162807479318683 H 0.0 **** 0.06
13314 H 12.500584158241992 59.90195755000519 10.657922253563399 H 0.0 **** 0.06
13315 H 11.551925777542237 59.02663645734253 11.883069607921133 H 0.0 **** 0.06
13316 C 23.410447055903603 70.83185353310968 56.34685068961643 C 0.0 **** -0.24
13317 H 22.8314659230046 70.66975926515443 55.437264304426066 H 0.0 **** 0.06
13318 H 23.152432730340706 70.06899350381941 57.081549440765514 H 0.0 **** 0.06
13319 H 23.18152789064692 71.81839222390057 56.75128058623022 H 0.0 **** 0.06
13320 H 24.47390508264641 70.77140022372743 56.11600989054769 H 0.0 **** 0.06
13321 C 26.795150535748903 15.005966688499761 66.61985175323827 C 0.0 **** -0.24
13322 H 26.015455924776887 14.558589085274264 66.00457572770671 H 0.0 **** 0.06
13323 H 27.68103980415888 14.370421601772826 66.6019701420681 H 0.0 **** 0.06
13324 H 26.4372841571044 15.10338845180896 67.64506721409805 H 0.0 **** 0.06
13325 H 27.04682225695541 15.991467615143208 66.22779392908018 H 0.0 **** 0.06
13326 C 77.46672944108542 7.755707584871857 50.00728010221104 C 0.0 **** -0.24
13327 H 78.26934432570854 7.106616858886468 49.65848274698749 H 0.0 **** 0.06
13328 H 76.79158779558082 7.975753429541811 49.179260339323264 H 0.0 **** 0.06
13329 H 77.89131665982228 8.68543827211954 50.386568415610924 H 0.0 **** 0.06
13330 H 76.91521598231927 7.256996180776696 50.80391293755065 H 0.0 **** 0.06
13331 C 1.4929012322197934 127.00638368337673 39.51411548890688 C 0.0 **** -0.24
13332 H 2.240360149343303 126.61168237986925 40.20275845762856 H 0.0 **** 0.06
13333 H 0.8872920584879012 126.18660040622223 39.12651129300841 H 0.0 **** 0.06
13334 H 1.9916826947180368 127.51210423950613 38.68808596395608 H 0.0 **** 0.06
13335 H 0.8524094698341287 127.71398888156381 40.040730390779814 H 0.0 **** 0.06
13336 C 136.1595103264473 73.93618493067389 79.86229817584507 C 0.0 **** -0.24
13337 H 137.1114660999572 74.41854620116523 79.64309092648182 H 0.0 **** 0.06
13338 H 135.72056420326055 74.38646242095555 80.7530509921935 H 0.0 **** 0.06
13339 H 136.32211016088613 72.87283393240425 80.03558108748322 H 0.0 **** 0.06
13340 H 135.4830810678617 74.0670980924113 79.01800602424333 H 0.0 **** 0.06
13341 C 15.719074488203034 106.4531364260634 40.940057152411555 C 0.0 **** -0.24
13342 H 15.810277843212212 106.59763113508066 42.01618504878476 H 0.0 **** 0.06
13343 H 15.839223625763871 107.40996356951456 40.432831340954166 H 0.0 **** 0.06
13344 H 14.735068421481536 106.04147532487332 40.71051114859051 H 0.0 **** 0.06
13345 H 16.490259761346437 105.76108728917796 40.599633305678 H 0.0 **** 0.06
13346 C 5.065377222329374 20.405670561496066 58.91096384002097 C 0.0 **** -0.24
13347 H 5.232243363842656 21.48009849178797 58.980478784598745 H 0.0 **** 0.06
13348 H 4.1533030463100715 20.21621765823764 58.34375451233254 H 0.0 **** 0.06
13349 H 4.963192036732437 19.988368024701714 59.91285497923491 H 0.0 **** 0.06
13350 H 5.91113246484727 19.937649552878156 58.40720946769915 H 0.0 **** 0.06
13351 C 130.72289862360796 50.28575559147512 93.8241274177171 C 0.0 **** -0.24
13352 H 130.232505317499 49.64795537519167 94.55984025023699 H 0.0 **** 0.06
13353 H 130.20186552818146 50.20726280103864 92.87020056806436 H 0.0 **** 0.06
13354 H 131.75808173050757 49.96725291079858 93.70012719857635 H 0.0 **** 0.06
13355 H 130.69964830743976 51.319789646438196 94.16742034704762 H 0.0 **** 0.06
13356 C 70.27667267746345 102.33688782349041 114.48898217373923 C 0.0 **** -0.24
13357 H 70.1162012718718 101.45118897771061 113.87386627685231 H 0.0 **** 0.06
13358 H 70.24290863115276 102.05813326856973 115.54239518326136 H 0.0 **** 0.06
13359 H 69.49554226336396 103.06907562945177 114.2813733749446 H 0.0 **** 0.06
13360 H 71.24985014009647 102.76910884954013 114.25719423159421 H 0.0 **** 0.06
13361 C 9.65914165606128 42.11262441855985 121.34119179598659 C 0.0 **** -0.24
13362 H 9.633055191838864 42.128531356189 120.25198543786757 H 0.0 **** 0.06
13363 H 10.023548654134586 43.07175022763529 121.70938371904018 H 0.0 **** 0.06
13364 H 10.324584529110268 41.31733290880152 121.67685420529246 H 0.0 **** 0.06
13365 H 8.655835987039211 41.93356456101614 121.72597264358525 H 0.0 **** 0.06
13366 C 61.224349645150625 36.00281308747503 40.33539528685927 C 0.0 **** -0.24
13367 H 60.867334943120866 35.59077125666997 39.39212223887612 H 0.0 **** 0.06
13368 H 61.78839468463106 36.915281917059076 40.14323423363302 H 0.0 **** 0.06
13369 H 61.868521130622284 35.27410062304136 40.829161811919334 H 0.0 **** 0.06
13370 H 60.37359567056363 36.22976705233023 40.97807611348529 H 0.0 **** 0.06
13371 C 86.21715387260298 27.39880895989029 39.99593244284804 C 0.0 **** -0.24
13372 H 87.22537687387415 27.338500689088477 40.406299808591655 H 0.0 **** 0.06
13373 H 85.56378751174327 27.89852184766397 40.7108369616332 H 0.0 **** 0.06
13374 H 85.8435319955353 26.39300177090098 39.802596782940306 H 0.0 **** 0.06
13375 H 86.23801681003147 27.96452514655948 39.0636373890805 H 0.0 **** 0.06
13376 C 113.91755639235134 94.96785829313865 21.722354727794965 C 0.0 **** -0.24
13377 H 114.29680260358776 94.47913488922308 20.823623447668552 H 0.0 **** 0.06
13378 H 114.4477176556631 95.90856736229716 21.874238199310696 H 0.0 **** 0.06
13379 H 114.07420094158826 94.3174960341579 22.582661334488762 H 0.0 **** 0.06
13380 H 112.85173511662165 95.16469618038101 21.605077562842666 H 0.0 **** 0.06
13381 C 81.38518022136122 18.544935077277387 134.52506454558943 C 0.0 **** -0.24
13382 H 81.78737689621344 18.33734252578944 135.51692504699867 H 0.0 **** 0.06
13383 H 82.0697997830448 18.16205065439823 133.76860132089993 H 0.0 **** 0.06
13384 H 81.26802478928867 19.620927637779573 134.3998062790042 H 0.0 **** 0.06
13385 H 80.41596450370713 18.058058094014598 134.418079747203 H 0.0 **** 0.06
13386 C 64.05693061172735 19.99403108398718 128.52655412171802 C 0.0 **** -0.24
13387 H 64.11669570479432 18.908778155480263 128.60488194479865 H 0.0 **** 0.06
13388 H 65.04543806649997 20.397431885246363 128.3044147076526 H 0.0 **** 0.06
13389 H 63.699458189178756 20.406815899362357 129.4700244365506 H 0.0 **** 0.06
13390 H 63.366098829702764 20.262999808860116 127.72789004594922 H 0.0 **** 0.06
13391 C 125.92979869870192 105.24424469351933 51.525817872713134 C 0.0 **** -0.24
13392 H 125.8965420305621 104.36809447883428 52.17412867872571 H 0.0 **** 0.06
13393 H 126.78003197464383 105.86783698968682 51.80108875808651 H 0.0 **** 0.06
13394 H 125.00763954054511 105.81512738062149 51.63982910532641 H 0.0 **** 0.06
13395 H 126.0325822084012 104.92419847914019 50.48875565148302 H 0.0 **** 0.06
13396 C 17.526021927340317 131.92980996147293 59.95047155412081 C 0.0 **** -0.24
13397 H 18.223730801317032 131.57392506606044 60.70920957089565 H 0.0 **** 0.06
13398 H 17.90152233516862 131.67050444851589 58.961511963386315 H 0.0 **** 0.06
13399 H 17.426244264988277 133.01236307429178 60.02936539296138 H 0.0 **** 0.06
13400 H 16.55333925046569 131.46252802080846 60.1048706123573 H 0.0 **** 0.06
13401 C 127.81873388406213 44.67035910330492 108.41781708897993 C 0.0 **** -0.24
13402 H 128.43152118629695 44.13496207216485 109.14342568129156 H 0.0 **** 0.06
13403 H 127.55032725018006 45.64720518461979 108.81985522772874 H 0.0 **** 0.06
13404 H 126.91231498740619 44.099096625196864 108.21699867789611 H 0.0 **** 0.06
13405 H 128.37928320083896 44.799232103468455 107.49236680013843 H 0.0 **** 0.06
13406 C 26.793054626984784 109.54285194995782 69.03858994771174 C 0.0 **** -0.24
13407 H 26.80868635515671 110.42827473486753 69.67348219524442 H 0.0 **** 0.06
13408 H 27.815631383807556 109.25684817080116 68.78918114868601 H 0.0 **** 0.06
13409 H 26.243816356307647 109.76275323974451 68.12259767096931 H 0.0 **** 0.06
13410 H 26.304979279684915 108.72534045176046 69.56771034399952 H 0.0 **** 0.06
13411 C 18.615025869771102 25.76956800050354 124.54654506462501 C 0.0 **** -0.24
13412 H 17.78510354498843 26.116872428574823 125.16238892188892 H 0.0 **** 0.06
13413 H 18.960260460835684 24.803507354118338 124.91540274131953 H 0.0 **** 0.06
13414 H 19.43041944692277 26.49129512130665 124.5966584057736 H 0.0 **** 0.06
13415 H 18.28351954900029 25.66802771260545 123.51355031478927 H 0.0 **** 0.06
13416 C 106.18874088255006 22.3618273655744 75.66128118768609 C 0.0 **** -0.24
13417 H 105.55096661685624 23.09259621433148 76.1576367994424 H 0.0 **** 0.06
13418 H 107.12694106170335 22.267975357090307 76.20847704142284 H 0.0 **** 0.06
13419 H 106.39345329188126 22.69006777206917 74.64205641178808 H 0.0 **** 0.06
13420 H 105.68448061388716 21.395772456517136 75.6376051255233 H 0.0 **** 0.06
13421 C 14.394690150631035 7.292668925269993 71.43182881336034 C 0.0 **** -0.24
13422 H 15.199323744125849 7.91634455120078 71.04212050722074 H 0.0 **** 0.06
13423 H 13.63794422419177 7.151746206532579 70.65927427775654 H 0.0 **** 0.06
13424 H 13.944757459513141 7.777806300016607 72.29794275270123 H 0.0 **** 0.06
13425 H 14.797487568947219 6.323744858574173 71.72680924197023 H 0.0 **** 0.06
13426 C 51.46119191229889 110.49866904428484 35.898928630750696 C 0.0 **** -0.24
13427 H 50.40866021216385 110.31225246169262 35.68528653492983 H 0.0 **** 0.06
13428 H 51.85198151230563 111.22935810287251 35.18989399972232 H 0.0 **** 0.06
13429 H 52.020069026479064 109.56766239845112 35.806294728930666 H 0.0 **** 0.06
13430 H 51.56245301739594 110.8844526149052 36.91300469104373 H 0.0 **** 0.06
13431 C 17.493713028833895 115.40760667594105 125.35031858687825 C 0.0 **** -0.24
13432 H 16.457774008101524 115.49659029093718 125.02478321987394 H 0.0 **** 0.06
13433 H 17.576929123900868 114.60323507980175 126.08096314051136 H 0.0 **** 0.06
13434 H 17.81442848883964 116.34642513999745 125.8036646180509 H 0.0 **** 0.06
13435 H 18.12638543588119 115.18559519988531 124.49062060688107 H 0.0 **** 0.06
13436 C 86.23189999806826 30.86020654522173 23.85858018921946 C 0.0 **** -0.24
13437 H 85.2830210753558 30.774982695722287 23.328397412855622 H 0.0 **** 0.06
13438 H 87.03314607661108 31.04223499908929 23.141174094893223 H 0.0 **** 0.06
13439 H 86.43042310009102 29.936199105124047 24.400452712371262 H 0.0 **** 0.06
13440 H 86.17959233480353 31.69115295060641 24.56330788311329 H 0.0 **** 0.06
13441 C 92.6469746400912 0.42498481330028426 55.93087272802734 C 0.0 **** -0.24
13442 H 92.1340946643272 0.8553231131627399 55.070556999443596 H 0.0 **** 0.06
13443 H 92.61766465474116 1.1308765318299265 56.761357467700705 H 0.0 **** 0.06
13444 H 93.68315261044654 0.21433373543743528 55.667904371078436 H 0.0 **** 0.06
13445 H 92.15005258080879 -0.5010599090554138 56.22325396533171 H 0.0 **** 0.06
13446 C 112.9032999896315 51.703064287618844 20.082319788921694 C 0.0 **** -0.24
13447 H 112.1743301639699 52.02528842604437 19.33853845331231 H 0.0 **** 0.06
13448 H 112.7417385039108 52.251999202185914 21.01018638496845 H 0.0 **** 0.06
13449 H 113.90975886387679 51.8989813228477 19.713455207753384 H 0.0 **** 0.06
13450 H 112.78444417510119 50.63482877604781 20.265656322132543 H 0.0 **** 0.06
13451 C 35.825799986064055 31.37449942309658 37.37934819184818 C 0.0 **** -0.24
13452 H 35.83696325268477 32.09581681261277 36.561542763201615 H 0.0 **** 0.06
13453 H 34.79458783348929 31.15752344904824 37.657517157499896 H 0.0 **** 0.06
13454 H 36.35483174147464 31.790562541793562 38.236529577682106 H 0.0 **** 0.06
13455 H 36.31738202134474 30.455844163624477 37.05965355008357 H 0.0 **** 0.06
13456 C 87.50594697729714 13.980015495963357 74.5740149005168 C 0.0 **** -0.24
13457 H 88.13117893725378 13.954306920514426 73.68139396269981 H 0.0 **** 0.06
13458 H 87.9041735466132 13.287376171507674 75.31658106144934 H 0.0 **** 0.06
13459 H 86.48957975492873 13.687454853612053 74.31314532728379 H 0.0 **** 0.06
13460 H 87.50074278178617 14.990001534326069 74.98417242021713 H 0.0 **** 0.06
13461 C 93.23128758777324 51.795428842299145 0.21267568277611915 C 0.0 **** -0.24
13462 H 94.18610000557945 51.482536450344924 0.6360108823043511 H 0.0 **** 0.06
13463 H 93.20773185842025 52.88188903249943 0.13457705411821408 H 0.0 **** 0.06
13464 H 92.42055195559774 51.45973864867938 0.8592016951058952 H 0.0 **** 0.06
13465 H 93.11154002337021 51.35603671680974 -0.7776349470476767 H 0.0 **** 0.06
13466 C 58.55592311576686 121.10730808798206 115.22983719703535 C 0.0 **** -0.24
13467 H 58.6106798349939 120.0718286075566 115.56653889214158 H 0.0 **** 0.06
13468 H 59.56006819663969 121.52924747471877 115.18990144149674 H 0.0 **** 0.06
13469 H 57.94582789201411 121.68327655531664 115.92515595343312 H 0.0 **** 0.06
13470 H 58.10674591597632 121.14205204742797 114.2368211819857 H 0.0 **** 0.06
13471 C 133.24057898887474 131.65096010575405 91.26276876685444 C 0.0 **** -0.24
13472 H 133.37456686153604 130.59805437000853 91.51036685368175 H 0.0 **** 0.06
13473 H 132.42429094877457 131.75494899044577 90.54726177522397 H 0.0 **** 0.06
13474 H 134.15945055636007 132.03917128349622 90.82393603923151 H 0.0 **** 0.06
13475 H 133.00459237218786 132.21023632150042 92.16789333056705 H 0.0 **** 0.06
13476 C 62.131185509952786 119.33889215631844 58.36450556352729 C 0.0 **** -0.24
13477 H 61.777995318191074 119.63989085233422 57.37798564141244 H 0.0 **** 0.06
13478 H 62.99451823010435 118.68207060012631 58.25586330314337 H 0.0 **** 0.06
13479 H 61.33627401807411 118.81072144926898 58.890048556146 H 0.0 **** 0.06
13480 H 62.41770315352014 120.22388877041465 58.9327332459379 H 0.0 **** 0.06
13481 C 108.73892496086012 11.181018503486769 100.12867065493838 C 0.0 **** -0.24
13482 H 107.72553250578659 11.545861010669341 99.95934916032442 H 0.0 **** 0.06
13483 H 109.17794843773174 10.87653207209081 99.178428856186 H 0.0 **** 0.06
13484 H 108.70857217433729 10.327139962623534 100.80558070353513 H 0.0 **** 0.06
13485 H 109.34133627864617 11.973807016288134 100.57097257780319 H 0.0 **** 0.06
13486 C 89.84607879050492 3.873095297514112 112.38962016123622 C 0.0 **** -0.24
13487 H 88.96540092726099 3.387637863350278 111.96836765846035 H 0.0 **** 0.06
13488 H 89.7965506160098 3.833139883187698 113.47818188616935 H 0.0 **** 0.06
13489 H 89.8761898824221 4.912812232414524 112.06581154874675 H 0.0 **** 0.06
13490 H 90.74288119750898 3.358815971979368 112.04719618111892 H 0.0 **** 0.06
13491 C 106.1237382504574 85.2534751186183 110.81520535706503 C 0.0 **** -0.24
13492 H 106.15389413507799 84.56375767206166 111.65829758033993 H 0.0 **** 0.06
13493 H 105.10996871796343 85.63570585946275 110.69411416974268 H 0.0 **** 0.06
13494 H 106.42668461198681 84.73142001937194 109.90763385427499 H 0.0 **** 0.06
13495 H 106.8058809423779 86.08430552287828 111.00117940240943 H 0.0 **** 0.06
13496 C 118.63694270212866 51.69285354204561 25.76617868852577 C 0.0 **** -0.24
13497 H 118.165269558257 51.5930709333242 26.74424616166999 H 0.0 **** 0.06
13498 H 119.6381623728717 52.10614264552376 25.88610920137586 H 0.0 **** 0.06
13499 H 118.04043035500464 52.358921517410195 25.14259986909451 H 0.0 **** 0.06
13500 H 118.7011218693219 50.713052693772454 25.292847517725136 H 0.0 **** 0.06
13501 C 48.91785574533708 55.41670241865711 104.61464597885032 C 0.0 **** -0.24
13502 H 49.931996730703915 55.0957171143844 104.85137901998671 H 0.0 **** 0.06
13503 H 48.20787153274718 54.854588125566806 105.22171930533712 H 0.0 **** 0.06
13504 H 48.716467788110336 55.23571707270247 103.5592791179051 H 0.0 **** 0.06
13505 H 48.81467584457319 56.48090347122587 104.82755466365799 H 0.0 **** 0.06
13506 C 98.39595657851295 43.87994891816185 74.63309336352688 C 0.0 **** -0.24
13507 H 99.18088890844275 43.38324336073272 74.06216962052662 H 0.0 **** 0.06
13508 H 98.58336600641871 44.95332501528586 74.65028338645334 H 0.0 **** 0.06
13509 H 98.3899434241014 43.494836403570766 75.65305085323837 H 0.0 **** 0.06
13510 H 97.43014259252108 43.686283307048484 74.16632785424372 H 0.0 **** 0.06
13511 C 126.3372702133129 34.07808532664889 45.4851301219055 C 0.0 **** -0.24
13512 H 127.4130890635046 34.251308668043094 45.48159386741155 H 0.0 **** 0.06
13513 H 126.14083917454747 33.01803546409616 45.65048509975334 H 0.0 **** 0.06
13514 H 125.91851591020006 34.379306648350536 44.524535699376216 H 0.0 **** 0.06
13515 H 125.87753670425312 34.66243820613957 46.28200267260429 H 0.0 **** 0.06
13516 C 85.34074029438871 81.72278746089682 13.039944573157907 C 0.0 **** -0.24
13517 H 85.44602433470956 80.7217610261547 13.457821820423199 H 0.0 **** 0.06
13518 H 84.33764944924033 82.09755559212874 13.243489813042395 H 0.0 **** 0.06
13519 H 85.50386784270661 81.68580302806066 11.96322056953796 H 0.0 **** 0.06
13520 H 86.0759257075254 82.38604457939726 13.497424123226402 H 0.0 **** 0.06
13521 C 86.38435585501962 24.51640864227204 90.51665510636064 C 0.0 **** -0.24
13522 H 86.97587417326923 25.39536253713345 90.77382861670657 H 0.0 **** 0.06
13523 H 85.72879244947345 24.753738100945412 89.67857430587179 H 0.0 **** 0.06
13524 H 85.78332072037618 24.218294801344996 91.37601358234107 H 0.0 **** 0.06
13525 H 87.05039272101693 23.700317125905073 90.23732811126874 H 0.0 **** 0.06
13526 C 16.63514581838446 75.322197059025 133.31305169959418 C 0.0 **** -0.24
13527 H 16.070996412110084 74.97913888940506 134.18043604985783 H 0.0 **** 0.06
13528 H 16.3539396939765 76.34904749955577 133.07997373554693 H 0.0 **** 0.06
13529 H 16.41515631892836 74.68139996935703 132.45920875731932 H 0.0 **** 0.06
13530 H 17.701994041317192 75.27842954372778 133.53405254498986 H 0.0 **** 0.06
13531 C 92.83876721335457 130.59165653457558 26.93115886289288 C 0.0 **** -0.24
13532 H 93.3666336198529 130.01134798344913 27.68793168507637 H 0.0 **** 0.06
13533 H 92.41298544329919 131.48447961141432 27.389255913360493 H 0.0 **** 0.06
13534 H 92.04083187050094 129.98655072767144 26.50158328181208 H 0.0 **** 0.06
13535 H 93.53743491952508 130.8834281228008 26.146491494693137 H 0.0 **** 0.06
13536 C 1.744141850678993 56.669325267439774 109.35315567706937 C 0.0 **** -0.24
13537 H 2.7775879330076982 57.01206517166426 109.39978822077563 H 0.0 **** 0.06
13538 H 1.7162925349039533 55.58427126120728 109.45428080854873 H 0.0 **** 0.06
13539 H 1.3095342925495217 56.956700208021516 108.39563336101696 H 0.0 **** 0.06
13540 H 1.1733123865817348 57.12482417376282 110.16210716742893 H 0.0 **** 0.06
13541 C 136.4723285324781 44.86394864268693 132.7224655059063 C 0.0 **** -0.24
13542 H 136.49520410794574 44.547092669853754 133.7657143340251 H 0.0 **** 0.06
13543 H 135.75824095357453 45.67967782449955 132.6066470125119 H 0.0 **** 0.06
13544 H 136.17215503579635 44.02527148370904 132.09485533774864 H 0.0 **** 0.06
13545 H 137.46507085312965 45.2039184099897 132.42467802739702 H 0.0 **** 0.06
13546 C 131.10068216329205 112.69907130376487 58.71177431382398 C 0.0 **** -0.24
13547 H 131.26935696593918 112.35049602837992 57.6931771794832 H 0.0 **** 0.06
13548 H 132.05895217426928 112.82424292143861 59.21647495820565 H 0.0 **** 0.06
13549 H 130.4991119730019 111.96624214525079 59.25074078127642 H 0.0 **** 0.06
13550 H 130.57516769638448 113.65356716288562 58.68768597230144 H 0.0 **** 0.06
13551 C 27.90792950205369 57.649400910787975 51.35057321314673 C 0.0 **** -0.24
13552 H 28.313243797041025 57.6941386905075 50.33974636701606 H 0.0 **** 0.06
13553 H 28.28118975028724 58.49508786262476 51.92828459068346 H 0.0 **** 0.06
13554 H 28.218790330903673 56.718351768278154 51.82604894218872 H 0.0 **** 0.06
13555 H 26.819684077565483 57.68997619705638 51.30745025734052 H 0.0 **** 0.06
13556 C 20.815675806149244 82.17105185054957 117.11038350957315 C 0.0 **** -0.24
13557 H 21.711812622461743 82.63403936989044 116.69860884658891 H 0.0 **** 0.06
13558 H 20.02294620777446 82.18480352165383 116.36056562238625 H 0.0 **** 0.06
13559 H 20.491715035948502 82.72579951282839 117.99127654430029 H 0.0 **** 0.06
13560 H 21.03367077211898 81.14002408589273 117.38902307741165 H 0.0 **** 0.06
13561 C 119.39939372864893 105.25507713167686 11.016654218181202 C 0.0 **** -0.24
13562 H 119.59026717168615 104.29622990725791 10.533489189557173 H 0.0 **** 0.06
13563 H 118.39125445373281 105.59087268148083 10.771683485566456 H 0.0 **** 0.06
13564 H 120.12285836381172 105.98975479222443 10.664194738054775 H 0.0 **** 0.06
13565 H 119.4917179306328 105.14224777812206 12.096640708110073 H 0.0 **** 0.06
13566 C 68.932720300425 22.569071590098602 72.01752922862927 C 0.0 **** -0.24
13567 H 69.82238989479221 22.258144848952732 71.46918839329723 H 0.0 **** 0.06
13568 H 69.22531267388754 23.21347770596477 72.84798310143753 H 0.0 **** 0.06
13569 H 68.41876534135675 21.688820930720972 72.40352033330872 H 0.0 **** 0.06
13570 H 68.2670811029165 23.115068658322556 71.34995776161388 H 0.0 **** 0.06
13571 C 39.393938625339906 46.24687702103802 118.65061700882347 C 0.0 **** -0.24
13572 H 39.95440070444902 45.823945778972956 117.81753151858274 H 0.0 **** 0.06
13573 H 38.4077908001417 46.5575591310822 118.30503030349848 H 0.0 **** 0.06
13574 H 39.92884661308409 47.10962189256094 119.0480699092561 H 0.0 **** 0.06
13575 H 39.28370806989878 45.49532793514146 119.43320522691562 H 0.0 **** 0.06
13576 C 4.623098690615848 107.35435908835598 100.58452545695434 C 0.0 **** -0.24
13577 H 3.9773266710154864 106.78671997288377 99.91539068504449 H 0.0 **** 0.06
13578 H 4.291496333109144 107.21456805923603 101.61374964975232 H 0.0 **** 0.06
13579 H 4.5723896511419255 108.41231960600743 100.32718871853518 H 0.0 **** 0.06
13580 H 5.649705582559456 107.00408190854101 100.48264220373261 H 0.0 **** 0.06
13581 C 21.20091469004015 83.42790414382006 5.0761988691022 C 0.0 **** -0.24
13582 H 20.511656899387162 83.07860163540226 4.307243388987331 H 0.0 **** 0.06
13583 H 22.22357571914864 83.36505028126919 4.703609421004671 H 0.0 **** 0.06
13584 H 21.099403125889182 82.80476849243746 5.964846962125762 H 0.0 **** 0.06
13585 H 20.96868882241037 84.4622721850111 5.32928176875339 H 0.0 **** 0.06
13586 C 11.196942167026009 53.840224665379424 110.03944515862815 C 0.0 **** -0.24
13587 H 12.02227301560248 53.17145863604526 110.28268788989203 H 0.0 **** 0.06
13588 H 10.518983249356893 53.34266824943717 109.34557960560437 H 0.0 **** 0.06
13589 H 11.587396950594666 54.74716319614316 109.57904471080667 H 0.0 **** 0.06
13590 H 10.657844425417977 54.09901808320478 110.95065789162152 H 0.0 **** 0.06
13591 C 45.13218159801208 106.94634868182506 78.17764853605338 C 0.0 **** -0.24
13592 H 44.13571552437335 106.58968687557258 77.92008940280093 H 0.0 **** 0.06
13593 H 45.26132400655674 107.96364950446669 77.80755482215169 H 0.0 **** 0.06
13594 H 45.87884252574577 106.2960521884711 77.72163647222493 H 0.0 **** 0.06
13595 H 45.25378621947489 106.93495326319503 79.26124743266749 H 0.0 **** 0.06
13596 C 13.042824415190111 46.1597867833073 25.573111588952713 C 0.0 **** -0.24
13597 H 13.352474192036624 45.287546558494824 24.997269530746607 H 0.0 **** 0.06
13598 H 13.870032708598728 46.86770296113015 25.633288243869814 H 0.0 **** 0.06
13599 H 12.757905929584254 45.8481898664178 26.577805004984796 H 0.0 **** 0.06
13600 H 12.19256161469977 46.634232695112274 25.083970227210514 H 0.0 **** 0.06
13601 C 78.10194588165665 115.01422833300813 12.132419911278248 C 0.0 **** -0.24
13602 H 78.12006942316162 115.59629139230364 11.210690437786866 H 0.0 **** 0.06
13603 H 78.09132452685547 113.95127722375224 11.890371962633878 H 0.0 **** 0.06
13604 H 77.20755923276921 115.26585689864248 12.703286530431058 H 0.0 **** 0.06
13605 H 78.98720518593964 115.2448408884845 12.724603877281766 H 0.0 **** 0.06
13606 C 37.72015695826684 109.93799390220678 126.98628179744438 C 0.0 **** -0.24
13607 H 38.07645929428177 109.0823843444935 126.41298172511848 H 0.0 **** 0.06
13608 H 36.637924461207206 110.01978201215778 126.88199555104144 H 0.0 **** 0.06
13609 H 38.19146891289406 110.84672593250238 126.61280734263919 H 0.0 **** 0.06
13610 H 37.97503239166685 109.80179887603975 128.0378756108682 H 0.0 **** 0.06
13611 C 10.785007602475503 118.48144387127738 2.7859330497270207 C 0.0 **** -0.24
13612 H 11.456955531462256 117.70034519012674 2.4314900306172262 H 0.0 **** 0.06
13613 H 10.808509339741335 118.51491339214047 3.875516711825469 H 0.0 **** 0.06
13614 H 9.769803574096386 118.26639248786498 2.4510990808630595 H 0.0 **** 0.06
13615 H 11.103077533168317 119.44386160497132 2.3853201719339836 H 0.0 **** 0.06
13616 C 13.354156157047697 53.491938557898635 73.80315416123005 C 0.0 **** -0.24
13617 H 14.222181214302594 54.00908188873717 74.21126236659319 H 0.0 **** 0.06
13618 H 12.952986208323225 52.80740690810411 74.55099049755268 H 0.0 **** 0.06
13619 H 13.649078391209315 52.929770847838114 72.9166687192203 H 0.0 **** 0.06
13620 H 12.591087261808909 54.22284286951165 73.53246450973006 H 0.0 **** 0.06
13621 C 92.31167094853163 101.27054211406386 120.16434835169775 C 0.0 **** -0.24
13622 H 92.17128765787808 101.5807016129423 121.19968098700042 H 0.0 **** 0.06
13623 H 93.30106812693936 101.57626991482044 119.82371392710581 H 0.0 **** 0.06
13624 H 91.55094095671612 101.73730274053389 119.53875387311092 H 0.0 **** 0.06
13625 H 92.22214746963346 100.18632668714386 120.09516362162412 H 0.0 **** 0.06
13626 C 106.3843138227028 21.11229075362951 110.32124932593061 C 0.0 **** -0.24
13627 H 106.1281507165172 20.65384983868745 109.36603759144592 H 0.0 **** 0.06
13628 H 107.44424517385211 20.95829752318997 110.52549602467968 H 0.0 **** 0.06
13629 H 105.79087600154178 20.656174568500717 111.11370351651459 H 0.0 **** 0.06
13630 H 106.17429347772946 22.18077093397696 110.27838212073209 H 0.0 **** 0.06
13631 C 51.60195167936581 10.526199542687948 3.1137107238982367 C 0.0 **** -0.24
13632 H 50.88145334257496 10.279512822558218 2.333371754183741 H 0.0 **** 0.06
13633 H 51.339327276986864 9.997889601368286 4.030744057075179 H 0.0 **** 0.06
13634 H 51.58739725063151 11.600897198712346 3.2952435869793852 H 0.0 **** 0.06
13635 H 52.599362600992606 10.225340961658446 2.793341212453111 H 0.0 **** 0.06
13636 C 84.82442217804376 118.05151488919728 74.77329862772795 C 0.0 **** -0.24
13637 H 84.8764367158911 118.08071893094174 73.6847938333024 H 0.0 **** 0.06
13638 H 85.73162296473787 117.59300302922068 75.1675583084291 H 0.0 **** 0.06
13639 H 83.95759592115569 117.46581966734743 75.08041821240043 H 0.0 **** 0.06
13640 H 84.73241892803091 119.06650982590835 75.15950159218592 H 0.0 **** 0.06
13641 C 25.637712778104003 39.17395214528008 61.67836083020531 C 0.0 **** -0.24
13642 H 24.582936905740553 39.17527865248121 61.404731281353634 H 0.0 **** 0.06
13643 H 25.902813806149425 38.20334981165905 62.0973603621113 H 0.0 **** 0.06
13644 H 25.821282006075933 39.9517119396385 62.41934671572322 H 0.0 **** 0.06
13645 H 26.242617035499507 39.365388202288344 60.79274687359293 H 0.0 **** 0.06
13646 C 2.8403208512873164 133.79716292324645 37.81780066476743 C 0.0 **** -0.24
13647 H 3.307461602873076 134.54861427035536 37.180923540064626 H 0.0 **** 0.06
13648 H 1.7902341660513628 134.0491919874805 37.966257299844784 H 0.0 **** 0.06
13649 H 3.348314282606623 133.77239807059038 38.782602459456726 H 0.0 **** 0.06
13650 H 2.9162387562324454 132.8198148338576 37.34186451647511 H 0.0 **** 0.06
13651 C 38.14399089507387 40.13293759616295 136.05801479000183 C 0.0 **** -0.24
13652 H 38.90505684730837 40.91111796179894 136.11396108656385 H 0.0 **** 0.06
13653 H 37.90744005971413 39.9318702991459 135.01271064770793 H 0.0 **** 0.06
13654 H 37.24557317043951 40.46526923796375 136.57697363117472 H 0.0 **** 0.06
13655 H 38.51978937320155 39.222891681432046 136.52698393197892 H 0.0 **** 0.06
13656 C 66.48802387659137 68.78565829308683 110.80759089079211 C 0.0 **** -0.24
13657 H 67.34091443805285 68.69815363585131 110.13289333733022 H 0.0 **** 0.06
13658 H 66.6854619443632 69.56536217034385 111.54308740641653 H 0.0 **** 0.06
13659 H 66.33183440676962 67.83506400212856 111.31877135037479 H 0.0 **** 0.06
13660 H 65.5974429755717 69.0410930939284 110.2348521155049 H 0.0 **** 0.06
13661 C 98.793232721646 60.840275359738456 13.150056547100633 C 0.0 **** -0.24
13662 H 98.00067767376561 60.10582126649308 13.293634910675223 H 0.0 **** 0.06
13663 H 99.46685502754502 60.82028012788169 14.007614888967169 H 0.0 **** 0.06
13664 H 98.35566493631234 61.833796560996916 13.055451632754114 H 0.0 **** 0.06
13665 H 99.35020116905065 60.60074801544687 12.245129043575787 H 0.0 **** 0.06
13666 C 35.47349321161418 69.51942624341967 43.18084693097745 C 0.0 **** -0.24
13667 H 34.86436936448895 70.00669321730487 43.94163931928634 H 0.0 **** 0.06
13668 H 35.62137291616875 70.20176607424455 42.342309438731945 H 0.0 **** 0.06
13669 H 34.96772361476073 68.61857783471066 42.83267837680904 H 0.0 **** 0.06
13670 H 36.44038195565465 69.25186930704649 43.60602508679858 H 0.0 **** 0.06
13671 C 133.6059142142121 127.72434325041405 110.01978000465328 C 0.0 **** -0.24
13672 H 134.41573241605445 127.51003992269595 109.32205466730238 H 0.0 **** 0.06
13673 H 132.66384830108962 127.36964139319976 109.60142192837338 H 0.0 **** 0.06
13674 H 133.5469536402257 128.79916438711905 110.18826499029066 H 0.0 **** 0.06
13675 H 133.79763543781038 127.21735000165486 110.96529249301358 H 0.0 **** 0.06
13676 C 51.20796463285623 23.25733647211726 90.84488093447271 C 0.0 **** -0.24
13677 H 51.24038608291755 24.266254242177837 90.43214869580518 H 0.0 **** 0.06
13678 H 50.63018968792204 23.261933645219898 91.76929915928784 H 0.0 **** 0.06
13679 H 52.22143123384359 22.916327035929044 91.05116950791239 H 0.0 **** 0.06
13680 H 50.73773142650822 22.586539954034237 90.1256474272746 H 0.0 **** 0.06
13681 C 55.757349138485296 81.68243343989286 62.72880254192938 C 0.0 **** -0.24
13682 H 54.683278356093794 81.83554121824403 62.626298882869946 H 0.0 **** 0.06
13683 H 56.24799570133028 81.90327808089683 61.78160953578916 H 0.0 **** 0.06
13684 H 55.95123629515062 80.645929723758 63.006500079898046 H 0.0 **** 0.06
13685 H 56.14620801004331 82.34444660029297 63.50349440690081 H 0.0 **** 0.06
13686 C 106.31445216818383 96.27961585395883 8.910125567071368 C 0.0 **** -0.24
13687 H 105.58154052727014 95.62149609388462 8.442637595676661 H 0.0 **** 0.06
13688 H 106.9748939492888 95.69215065755274 9.54851917061762 H 0.0 **** 0.06
13689 H 105.79790728036608 97.02812275994499 9.511090506803423 H 0.0 **** 0.06
13690 H 106.90159268747493 96.7762331898308 8.137730404328487 H 0.0 **** 0.06
13691 C 55.250171438974434 10.26704724632113 102.3408779787097 C 0.0 **** -0.24
13692 H 55.23054790255931 10.967945699629084 103.17602370468296 H 0.0 **** 0.06
13693 H 55.09284559848899 9.254430260404622 102.71334477918114 H 0.0 **** 0.06
13694 H 56.21676509389219 10.325469434697208 101.84096239160755 H 0.0 **** 0.06
13695 H 54.460471793859796 10.521484049220259 101.63510367304178 H 0.0 **** 0.06
13696 C 125.18545372694413 113.15630177822393 63.32650890312897 C 0.0 **** -0.24
13697 H 125.37666662424158 112.38390294990586 62.581156793034154 H 0.0 **** 0.06
13698 H 124.33498723588956 112.8628728443239 63.94321251510536 H 0.0 **** 0.06
13699 H 124.96306372596698 114.0974803953309 62.82436397526993 H 0.0 **** 0.06
13700 H 126.06633239511173 113.27795043620586 63.956113853550505 H 0.0 **** 0.06
13701 C 70.2381606758437 135.69327519432474 36.15325814027786 C 0.0 **** -0.24
13702 H 71.20069533245523 135.27788337464085 35.852140544273304 H 0.0 **** 0.06
13703 H 70.35414309522491 136.75505555974027 36.37092899466558 H 0.0 **** 0.06
13704 H 69.88178327977211 135.1755531650419 37.0436951707943 H 0.0 **** 0.06
13705 H 69.51920351210083 135.56425510769273 35.34494605901185 H 0.0 **** 0.06
13706 C 106.15951697917414 79.21172873419502 49.28013782565044 C 0.0 **** -0.24
13707 H 106.65488019034444 79.57011876372421 48.377984335733316 H 0.0 **** 0.06
13708 H 105.20041630319376 78.76653480467075 49.01486374844468 H 0.0 **** 0.06
13709 H 105.99618014063572 80.04851043813244 49.960806332213565 H 0.0 **** 0.06
13710 H 106.78551995059568 78.46470953293134 49.76658163780584 H 0.0 **** 0.06
13711 C 20.316453588596772 30.14979710046191 123.14795880999917 C 0.0 **** -0.24
13712 H 21.046792481875485 29.55114445646666 123.69128203114124 H 0.0 **** 0.06
13713 H 20.772250829324335 30.540884191721375 122.23818090421537 H 0.0 **** 0.06
13714 H 19.98682913542398 30.977861639089838 123.77459175762553 H 0.0 **** 0.06
13715 H 19.460073034312828 29.527991339300456 122.88725591674864 H 0.0 **** 0.06
13716 C 12.875559771140104 66.44217853889745 77.56194801875813 C 0.0 **** -0.24
13717 H 12.617358883220504 65.95486074869399 78.50201435894593 H 0.0 **** 0.06
13718 H 12.2340984928245 67.31072013733097 77.41427283173283 H 0.0 **** 0.06
13719 H 12.735205026247627 65.74141388431084 76.73853467315189 H 0.0 **** 0.06
13720 H 13.918498776412548 66.7611929316061 77.59339989653449 H 0.0 **** 0.06
13721 C 32.14929297651756 42.23778325060873 18.63885182199823 C 0.0 **** -0.24
13722 H 31.43212066362736 41.47991855928605 18.323953372177158 H 0.0 **** 0.06
13723 H 32.505399557949744 42.00513092052754 19.643374169161376 H 0.0 **** 0.06
13724 H 31.667839113612047 43.216014480301915 18.64128709331115 H 0.0 **** 0.06
13725 H 32.99330398324659 42.24986048036731 17.94844565751731 H 0.0 **** 0.06
13726 C 106.92664935487682 124.77531918025957 102.56696729336355 C 0.0 **** -0.24
13727 H 107.39935383770575 125.73641605654123 102.77208038493157 H 0.0 **** 0.06
13728 H 106.9189171405121 124.59685869309806 101.4913924888393 H 0.0 **** 0.06
13729 H 105.90385457390683 124.78741549233527 102.94107622073287 H 0.0 **** 0.06
13730 H 107.4864187994598 123.9820433001081 103.06361572402581 H 0.0 **** 0.06
13731 C 90.64375524442278 124.9639208443131 124.73979356252138 C 0.0 **** -0.24
13732 H 89.63095479022004 125.33056821749594 124.91060651400875 H 0.0 **** 0.06
13733 H 91.13800642169097 124.80415549505403 125.6979646638703 H 0.0 **** 0.06
13734 H 91.2027438048398 125.69935823218384 124.16058312321758 H 0.0 **** 0.06
13735 H 90.60149556475456 124.02347169087216 124.19149937743816 H 0.0 **** 0.06
13736 C 54.69309146349485 75.67891025436755 124.19838423497356 C 0.0 **** -0.24
13737 H 55.223182738316396 75.26924500382279 125.05780651388767 H 0.0 **** 0.06
13738 H 54.791945758595446 76.7647957324018 124.19430288489298 H 0.0 **** 0.06
13739 H 53.63767503395839 75.40983163241738 124.26046493030111 H 0.0 **** 0.06
13740 H 55.1178617909094 75.27148108266694 123.2811227200877 H 0.0 **** 0.06
13741 C 80.07164900865845 53.943430499221634 11.66461542434536 C 0.0 **** -0.24
13742 H 80.97024761712989 53.733811866249965 12.24479180078685 H 0.0 **** 0.06
13743 H 80.1446047899614 54.94236944856439 11.233106963830487 H 0.0 **** 0.06
13744 H 79.19915284651658 53.89130753284279 12.315404696713824 H 0.0 **** 0.06
13745 H 79.97504565438618 53.20829959484385 10.866463592502008 H 0.0 **** 0.06
13746 C 73.19396781535585 82.7030967482554 0.7865850760691977 C 0.0 **** -0.24
13747 H 72.39140636466777 82.01388347738293 1.049560844948978 H 0.0 **** 0.06
13748 H 73.82346950639878 82.87749064849822 1.6605745288059133 H 0.0 **** 0.06
13749 H 72.7662024611328 83.64766735042463 0.4511179032099193 H 0.0 **** 0.06
13750 H 73.79592698599845 82.27126400748443 -0.013074045916823707 H 0.0 **** 0.06
13751 C 100.93214138359464 28.874523707497843 62.38355533555966 C 0.0 **** -0.24
13752 H 101.17429868616848 27.89902645551281 62.80403834929177 H 0.0 **** 0.06
13753 H 100.38859016275299 29.464191067593994 63.122915610191285 H 0.0 **** 0.06
13754 H 100.31364923640794 28.744288583243545 61.49558611728969 H 0.0 **** 0.06
13755 H 101.85262118071472 29.39128216812393 62.11208951025105 H 0.0 **** 0.06
13756 C 30.161754939422337 58.02209779311757 96.11990047842595 C 0.0 **** -0.24
13757 H 30.005888565431405 58.57166022682583 95.1915132359288 H 0.0 **** 0.06
13758 H 31.00510262806978 57.340567540854764 96.00137060729855 H 0.0 **** 0.06
13759 H 29.26453797115269 57.45078713431795 96.35984827484394 H 0.0 **** 0.06
13760 H 30.372767593747994 58.723372630971184 96.92627399699958 H 0.0 **** 0.06
13761 C 13.50744364846355 8.828258565835341 6.448045522185737 C 0.0 **** -0.24
13762 H 13.677162916631346 7.80095254507868 6.77105912872085 H 0.0 **** 0.06
13763 H 12.452145267153753 8.963064657894734 6.207567294796036 H 0.0 **** 0.06
13764 H 14.111059466784582 9.035284760069096 5.563936255306373 H 0.0 **** 0.06
13765 H 13.78839796101579 9.512229825556556 7.2483061101966655 H 0.0 **** 0.06
13766 C 2.995035873801207 89.62226838760112 31.749001003775206 C 0.0 **** -0.24
13767 H 3.6750026775519444 89.86664654135684 30.93290019792026 H 0.0 **** 0.06
13768 H 3.5566942839166664 89.17160136981515 32.566876973909515 H 0.0 **** 0.06
13769 H 2.239999618714588 88.92071905179428 31.394367614513435 H 0.0 **** 0.06
13770 H 2.5084382277951427 90.5323006136392 32.099813112758994 H 0.0 **** 0.06
13771 C 13.29734943222877 50.76238260128724 36.239214910448595 C 0.0 **** -0.24
13772 H 13.217316649042786 49.76144126795333 36.66302648832229 H 0.0 **** 0.06
13773 H 13.727878370095546 51.436063891617124 36.97959952716502 H 0.0 **** 0.06
13774 H 12.306232120119773 51.11641928857688 35.95608146761353 H 0.0 **** 0.06
13775 H 13.938657592211953 50.73255105605307 35.35770935947261 H 0.0 **** 0.06
13776 C 2.0710770447192317 100.76881604934226 42.512744527676546 C 0.0 **** -0.24
13777 H 2.3946041702585887 101.6243938717405 41.92036894828925 H 0.0 **** 0.06
13778 H 1.4147800569232913 101.10881088190729 43.31439899176377 H 0.0 **** 0.06
13779 H 2.941490170475646 100.2733015461256 42.94132634106643 H 0.0 **** 0.06
13780 H 1.531971278680345 100.06788554883309 41.87520042554121 H 0.0 **** 0.06
13781 C 52.503362652129056 85.21741839316348 117.01877861719234 C 0.0 **** -0.24
13782 H 53.253922548410515 84.42787069750847 116.99930314537448 H 0.0 **** 0.06
13783 H 51.78128375289617 85.05245157225391 116.21890419740333 H 0.0 **** 0.06
13784 H 52.988895918365486 86.1839000914618 116.87674086089726 H 0.0 **** 0.06
13785 H 51.98954557919336 85.20682511637546 117.98043754697582 H 0.0 **** 0.06
13786 C 85.75289005518088 57.93628959135586 134.45159446717648 C 0.0 **** -0.24
13787 H 85.70930323952392 57.977610347454004 135.5402895033384 H 0.0 **** 0.06
13788 H 86.10874633372308 56.953513355762595 134.140324005252 H 0.0 **** 0.06
13789 H 86.43543453765416 58.70353208518412 134.08646978301576 H 0.0 **** 0.06
13790 H 84.75785172253963 58.110294673022906 134.0417249483373 H 0.0 **** 0.06
13791 C 108.99702132903957 129.61219103758054 80.15410127672767 C 0.0 **** -0.24
13792 H 108.6429563956532 129.36228521954348 81.15405635042643 H 0.0 **** 0.06
13793 H 109.90085712492134 129.04320179955297 79.9355099249969 H 0.0 **** 0.06
13794 H 109.21663833034401 130.67849604544833 80.10227409741195 H 0.0 **** 0.06
13795 H 108.22543486308899 129.36484103235713 79.42416126570878 H 0.0 **** 0.06
13796 C 9.93167409717671 125.50479035363335 39.4920391911958 C 0.0 **** -0.24
13797 H 8.843288031815206 125.53508626966115 39.435311590573065 H 0.0 **** 0.06
13798 H 10.293917629997793 126.40145795984631 39.995689789899444 H 0.0 **** 0.06
13799 H 10.346540095014092 125.46053037106375 38.48535240212237 H 0.0 **** 0.06
13800 H 10.241488824773029 124.62257877815583 40.05342203220219 H 0.0 **** 0.06
13801 C 112.72840340505076 98.02972360324192 83.60831499678864 C 0.0 **** -0.24
13802 H 113.5082868301862 98.09130215784525 82.84938418224294 H 0.0 **** 0.06
13803 H 112.32376763739376 97.0179659655099 83.63130262496401 H 0.0 **** 0.06
13804 H 111.93200163889708 98.73436690935173 83.36828351272896 H 0.0 **** 0.06
13805 H 113.15018265864882 98.27512631503186 84.58352055486205 H 0.0 **** 0.06
13806 C 112.28214186335106 132.02444792969794 48.491726469415454 C 0.0 **** -0.24
13807 H 112.697542432494 131.3678451440705 47.72706234411706 H 0.0 **** 0.06
13808 H 112.16693231434607 131.469021994041 49.423481231539256 H 0.0 **** 0.06
13809 H 111.31049510919809 132.39209244725242 48.16474012932079 H 0.0 **** 0.06
13810 H 112.95523207661077 132.86639066668482 48.65222891386618 H 0.0 **** 0.06
13811 C 111.02248727726285 9.55230443965159 60.945157403626 C 0.0 **** -0.24
13812 H 111.45805568718461 9.33655119241062 59.96948391145388 H 0.0 **** 0.06
13813 H 109.93904667471628 9.450075584221583 60.889923821285265 H 0.0 **** 0.06
13814 H 111.27751822624165 10.570790346459052 61.23926923520388 H 0.0 **** 0.06
13815 H 111.41697015912612 8.851963253480022 61.68142470868605 H 0.0 **** 0.06
13816 C 86.02656396347356 92.93576049770621 12.160334728704356 C 0.0 **** -0.24
13817 H 85.1848339638654 92.68615527929508 11.512175770400347 H 0.0 **** 0.06
13818 H 86.35765710984478 93.95225654957216 11.948122197477943 H 0.0 **** 0.06
13819 H 86.84510562074462 92.23934757333647 11.975081625183577 H 0.0 **** 0.06
13820 H 85.71553749289384 92.86404598833602 13.201748934391219 H 0.0 **** 0.06
13821 C 46.185715982115084 23.988146865790554 102.16352248489756 C 0.0 **** -0.24
13822 H 47.2457858833759 23.870005582707563 101.93777144994505 H 0.0 **** 0.06
13823 H 45.97031887147767 25.039025866871725 102.35558874914977 H 0.0 **** 0.06
13824 H 45.93440977054075 23.39730936377589 103.04421158140866 H 0.0 **** 0.06
13825 H 45.59399110828332 23.64469189723377 101.31430727422293 H 0.0 **** 0.06
13826 C 83.94619688848599 27.119295796933898 125.52423334569745 C 0.0 **** -0.24
13827 H 84.68240031982339 26.317130401436202 125.479857487123 H 0.0 **** 0.06
13828 H 83.51177450592219 27.15798833665184 126.52439995997915 H 0.0 **** 0.06
13829 H 83.1594414284392 26.93251358780992 124.7929246959157 H 0.0 **** 0.06
13830 H 84.4308422773723 28.070045956142337 125.30190689689482 H 0.0 **** 0.06
13831 C 17.435096419692087 124.59495371095765 91.98739980642964 C 0.0 **** -0.24
13832 H 17.48113886859724 123.50718909277552 92.03120907083026 H 0.0 **** 0.06
13833 H 18.2313647189593 124.96690897442981 91.34213151330137 H 0.0 **** 0.06
13834 H 17.560001783901754 125.00388279765806 92.99004915449262 H 0.0 **** 0.06
13835 H 16.469264522770573 124.90227260221904 91.58715378378574 H 0.0 **** 0.06
13836 C 79.70297485789592 87.43468931179814 0.13175414825840548 C 0.0 **** -0.24
13837 H 78.96093848111724 86.66970647111515 -0.09591295484143814 H 0.0 **** 0.06
13838 H 79.58919030026686 87.75447457014744 1.168264926097823 H 0.0 **** 0.06
13839 H 79.55980470490931 88.28848642984786 -0.5307365024970778 H 0.0 **** 0.06
13840 H 80.70297180277305 87.02511307565265 -0.014784347256359354 H 0.0 **** 0.06
13841 C 72.57233430252964 130.25248726551368 111.0260337341536 C 0.0 **** -0.24
13842 H 73.49924515389418 130.37489463220888 111.58579952753271 H 0.0 **** 0.06
13843 H 72.45373171678531 129.20594155865749 110.7435773331299 H 0.0 **** 0.06
13844 H 72.60565514410911 130.8698263171664 110.12812488847277 H 0.0 **** 0.06
13845 H 71.73003906134903 130.558991775282 111.64594804708449 H 0.0 **** 0.06
13846 C 58.83499134361199 30.94205876527724 5.305509346892961 C 0.0 **** -0.24
13847 H 58.63675233226587 31.12595634533369 4.2497991523341625 H 0.0 **** 0.06
13848 H 59.86669994541674 30.61311959327196 5.428868302048556 H 0.0 **** 0.06
13849 H 58.16036338634791 30.167605451538293 5.671498801069447 H 0.0 **** 0.06
13850 H 58.67550233777672 31.860405770104023 5.869806305164104 H 0.0 **** 0.06
13851 C 3.3254085722437026 106.86922890278086 91.46526850476495 C 0.0 **** -0.24
13852 H 2.7505585152481444 107.51726531611246 90.80332265896779 H 0.0 **** 0.06
13853 H 3.7334652339490617 106.03666152288446 90.89289682231075 H 0.0 **** 0.06
13854 H 2.6765866757897356 106.4866802264788 92.25239661525431 H 0.0 **** 0.06
13855 H 4.141828922032687 107.43885327209935 91.91108800794933 H 0.0 **** 0.06
13856 C 123.43421817209996 108.61548218083988 135.38930690358313 C 0.0 **** -0.24
13857 H 124.14192537686053 109.40106838238694 135.65207076121925 H 0.0 **** 0.06
13858 H 122.41704684431262 108.98194798205134 135.5273154637993 H 0.0 **** 0.06
13859 H 123.59922694700963 107.74920695133369 136.0303906876 H 0.0 **** 0.06
13860 H 123.57993005409324 108.32915640588982 134.34710456236814 H 0.0 **** 0.06
13861 C 3.2713100342847383 58.70039433965013 41.14793833039147 C 0.0 **** -0.24
13862 H 2.475475971106164 58.08333351715254 41.56562142674113 H 0.0 **** 0.06
13863 H 4.099746987789501 58.06271346906813 40.836386614659574 H 0.0 **** 0.06
13864 H 3.6193742170398195 59.40472010724193 41.90386268162405 H 0.0 **** 0.06
13865 H 2.8910927135998463 59.25032843404664 40.28713385961464 H 0.0 **** 0.06
13866 C 116.16990391901913 27.596062694576716 37.251413459415915 C 0.0 **** -0.24
13867 H 115.57171310490247 27.092612319699413 38.01112297498156 H 0.0 **** 0.06
13868 H 116.49937172429156 26.870349402827514 36.50834737169282 H 0.0 **** 0.06
13869 H 117.03939971391983 28.05780930653367 37.72024203573778 H 0.0 **** 0.06
13870 H 115.56756235204449 28.364819666330476 36.76680388227459 H 0.0 **** 0.06
13871 C 90.28172285570139 59.49746933237162 25.89792056024885 C 0.0 **** -0.24
13872 H 91.24942009267407 59.66752282797928 25.426141035322473 H 0.0 **** 0.06
13873 H 90.35334077630573 58.64523895065069 26.574410291388233 H 0.0 **** 0.06
13874 H 89.53488945513384 59.2912785356407 25.13082127239329 H 0.0 **** 0.06
13875 H 89.99121243560856 60.38481293435042 26.460054062401895 H 0.0 **** 0.06
13876 C 4.854215389087528 10.165632418596275 114.02565694067488 C 0.0 **** -0.24
13877 H 5.767853313508226 9.750983946430324 114.45168211873505 H 0.0 **** 0.06
13878 H 5.081775264254219 11.106480091259442 113.5233071830938 H 0.0 **** 0.06
13879 H 4.131740687021107 10.344364736505241 114.82276495128397 H 0.0 **** 0.06
13880 H 4.4355259641518785 9.461171090733615 113.30705937754746 H 0.0 **** 0.06
13881 C 79.05801417199918 2.379311789383223 71.57347945977659 C 0.0 **** -0.24
13882 H 78.34350054823494 2.4047728909853276 70.75130245230866 H 0.0 **** 0.06
13883 H 79.8957228977538 3.0394881068477844 71.34651596318531 H 0.0 **** 0.06
13884 H 79.42332790099927 1.3607065650955974 71.70536331885774 H 0.0 **** 0.06
13885 H 78.56965472622952 2.712314115563572 72.4893301939992 H 0.0 **** 0.06
13886 C 102.1111424090067 22.9096508002728 79.38511415509623 C 0.0 **** -0.24
13887 H 103.04105058352769 22.624482129961848 79.87705589573011 H 0.0 **** 0.06
13888 H 101.5711016296188 22.012999548482142 79.08016567560247 H 0.0 **** 0.06
13889 H 102.33559678672543 23.514921282990116 78.5066683965714 H 0.0 **** 0.06
13890 H 101.49717980053933 23.487010356219372 80.07610323210264 H 0.0 **** 0.06
13891 C 53.48280742926572 19.993862851544066 4.287624907540021 C 0.0 **** -0.24
13892 H 52.78336856548343 20.772601214962663 3.9837237814145396 H 0.0 **** 0.06
13893 H 54.30286808688274 19.942602757217315 3.5725102951288363 H 0.0 **** 0.06
13894 H 52.96632721019316 19.034690123737917 4.319135340438606 H 0.0 **** 0.06
13895 H 53.877053254231384 20.226376032304827 5.277523878085958 H 0.0 **** 0.06
13896 C 15.112929335805177 108.87137701133834 1.2452773664871017 C 0.0 **** -0.24
13897 H 14.887723124043148 109.7841524263979 1.796759244128907 H 0.0 **** 0.06
13898 H 16.093504270024766 108.96209881201914 0.7789240934410202 H 0.0 **** 0.06
13899 H 14.355915474919726 108.71725573363422 0.47477440149378936 H 0.0 **** 0.06
13900 H 15.111518581191206 108.02347902837738 1.929960552036448 H 0.0 **** 0.06
13901 C 108.11999195470368 99.79346727884406 68.79630257537657 C 0.0 **** -0.24
13902 H 108.03789120430017 100.8167973962091 69.16202375433353 H 0.0 **** 0.06
13903 H 108.68095145063495 99.19545942309973 69.51456374946966 H 0.0 **** 0.06
13904 H 108.6392517425421 99.79182766902079 67.83773402587775 H 0.0 **** 0.06
13905 H 107.12296994882853 99.37140405098869 68.6704701085437 H 0.0 **** 0.06
13906 C 86.49080737471273 47.78960091712361 106.54451296005342 C 0.0 **** -0.24
13907 H 86.73950647310109 46.88133589653498 105.99467614816436 H 0.0 **** 0.06
13908 H 86.32269245894845 47.54500166238307 107.59305366739503 H 0.0 **** 0.06
13909 H 85.58641707226028 48.231345368523876 106.12411771668897 H 0.0 **** 0.06
13910 H 87.31349531847097 48.50070880252861 106.46263356734218 H 0.0 **** 0.06
13911 C 102.67016237804347 48.09341771406554 114.28806469162967 C 0.0 **** -0.24
13912 H 102.38054237051767 49.05570841613002 114.71075362986943 H 0.0 **** 0.06
13913 H 102.00219268261773 47.31699843471611 114.65922717469985 H 0.0 **** 0.06
13914 H 103.69507969851469 47.862641432655124 114.58065128123869 H 0.0 **** 0.06
13915 H 102.6051864325417 48.140119705506834 113.20113640555056 H 0.0 **** 0.06
13916 C 87.92318035732967 97.93975764154771 116.91192958979207 C 0.0 **** -0.24
13917 H 87.19342267482925 97.13106187640619 116.93123996958013 H 0.0 **** 0.06
13918 H 87.4850554608091 98.81338949301511 116.42799355660915 H 0.0 **** 0.06
13919 H 88.80495721870189 97.62095791992482 116.35715457938528 H 0.0 **** 0.06
13920 H 88.20912220675304 98.19565107785365 117.93225398883888 H 0.0 **** 0.06
13921 C 70.77824352972135 15.829037640232116 107.81552444289363 C 0.0 **** -0.24
13922 H 70.70072499393149 14.755940058049077 107.99112777606979 H 0.0 **** 0.06
13923 H 69.90534598473693 16.16917046044489 107.2570079516849 H 0.0 **** 0.06
13924 H 71.68124677512344 16.039308865731186 107.24271453064162 H 0.0 **** 0.06
13925 H 70.82444094303753 16.3499355026255 108.77179389725926 H 0.0 **** 0.06
13926 C 120.07248431471032 61.4392808364848 61.22436223764815 C 0.0 **** -0.24
13927 H 120.89486683253196 61.512785649051295 60.51223504887412 H 0.0 **** 0.06
13928 H 119.5399004468113 60.5009071258214 61.06778863638333 H 0.0 **** 0.06
13929 H 119.38928022244615 62.2747831200393 61.07692040721183 H 0.0 **** 0.06
13930 H 120.46856778829289 61.46738734222728 62.240014254818306 H 0.0 **** 0.06
13931 C 22.749488254447982 23.395209515825286 34.477374475808205 C 0.0 **** -0.24
13932 H 22.34726001890391 22.51744886274031 33.97125318744664 H 0.0 **** 0.06
13933 H 23.348551253160792 23.07984987983457 35.332014701206276 H 0.0 **** 0.06
13934 H 21.92854431266978 24.02456192337982 34.820628961633254 H 0.0 **** 0.06
13935 H 23.373929175082885 23.959523150131332 33.78483154175595 H 0.0 **** 0.06
13936 C 118.94925454772087 48.68265174523128 75.55307492695144 C 0.0 **** -0.24
13937 H 118.93592743633721 47.62430221830317 75.8140782655913 H 0.0 **** 0.06
13938 H 119.92479583178824 49.10361555104228 75.79471039820027 H 0.0 **** 0.06
13939 H 118.17688294764568 49.20484345506347 76.11758709049687 H 0.0 **** 0.06
13940 H 118.7583433513114 48.79531878923656 74.48661159463772 H 0.0 **** 0.06
13941 C 69.52653719833359 93.12095952680583 84.44336648886849 C 0.0 **** -0.24
13942 H 68.88603695892795 92.53271084937413 85.10054835226111 H 0.0 **** 0.06
13943 H 69.68778515595613 92.57696436368626 83.511410733275 H 0.0 **** 0.06
13944 H 70.48415964510548 93.2963844882146 84.932015979043 H 0.0 **** 0.06
13945 H 69.0473434777669 94.07561021006288 84.22870288017742 H 0.0 **** 0.06
13946 C 60.68252629391823 93.60801420786395 44.61608214153446 C 0.0 **** -0.24
13947 H 60.73135552161453 93.08991580232572 43.65894904970631 H 0.0 **** 0.06
13948 H 61.48677936571214 93.25540869067838 45.26128472747922 H 0.0 **** 0.06
13949 H 59.72120374734452 93.4064496386238 45.0888397490323 H 0.0 **** 0.06
13950 H 60.79011775274813 94.68052049300958 44.45453214673893 H 0.0 **** 0.06
13951 C 97.12146600332522 80.3923680165007 85.17512747020602 C 0.0 **** -0.24
13952 H 96.51516924349124 79.60921350287059 85.63105108294378 H 0.0 **** 0.06
13953 H 97.96872662153947 79.9412670218472 84.65687223960609 H 0.0 **** 0.06
13954 H 97.4853558437369 81.06677204133892 85.94974506524956 H 0.0 **** 0.06
13955 H 96.51534660950244 80.95176666210035 84.4617492050522 H 0.0 **** 0.06
13956 C 35.00457118283487 66.68953981440362 33.25804943167543 C 0.0 **** -0.24
13957 H 34.04210175228588 66.37562472802966 32.8543441371954 H 0.0 **** 0.06
13958 H 34.90012138847363 66.90428250934445 34.32138233282798 H 0.0 **** 0.06
13959 H 35.3414401749555 67.58554955858096 32.736729106236766 H 0.0 **** 0.06
13960 H 35.73361544766157 65.8918095119426 33.11706053033825 H 0.0 **** 0.06
13961 C 113.8493814149214 14.450119966274826 8.787016250561294 C 0.0 **** -0.24
13962 H 114.52229630401212 13.93480637971524 9.471990334660404 H 0.0 **** 0.06
13963 H 113.00934245593206 14.862447917542937 9.346560976900378 H 0.0 **** 0.06
13964 H 113.4790549996423 13.745770768677204 8.04223198051011 H 0.0 **** 0.06
13965 H 114.38684235204832 15.257628652186298 8.289725057051385 H 0.0 **** 0.06
13966 C 110.6076815437504 6.60711622926425 91.14792100169433 C 0.0 **** -0.24
13967 H 110.01183310975031 5.716528459166057 91.3474256979141 H 0.0 **** 0.06
13968 H 110.97819989753387 6.574258048633453 90.12367614782806 H 0.0 **** 0.06
13969 H 111.4493764790895 6.64260854356462 91.83871832224708 H 0.0 **** 0.06
13970 H 109.9889781260328 7.494732144025221 91.28250986289248 H 0.0 **** 0.06
13971 C 110.04665053141176 16.511556111011224 121.18848359208471 C 0.0 **** -0.24
13972 H 110.5580106070777 15.579052735366027 120.95090126694794 H 0.0 **** 0.06
13973 H 110.25806640313738 16.789382325691207 122.22133450656553 H 0.0 **** 0.06
13974 H 108.97232363777707 16.380669854417626 121.05836602341778 H 0.0 **** 0.06
13975 H 110.39956417515148 17.298835973029696 120.52128384227277 H 0.0 **** 0.06
13976 C 41.147439436376175 17.89674718662539 107.76596846554693 C 0.0 **** -0.24
13977 H 41.77447167814355 17.251263791922327 108.38111870948558 H 0.0 **** 0.06
13978 H 40.832445059002204 18.761480351274486 108.3500114070336 H 0.0 **** 0.06
13979 H 40.269720809138114 17.341681161540876 107.4347105803628 H 0.0 **** 0.06
13980 H 41.71497675078168 18.232685292528885 106.89729930286722 H 0.0 **** 0.06
13981 C 36.03607118965371 44.4648933647718 88.18653131595437 C 0.0 **** -0.24
13982 H 36.107675945984596 43.92032136140398 87.24405041971508 H 0.0 **** 0.06
13983 H 36.98872990611639 44.94950698161796 88.39823874068367 H 0.0 **** 0.06
13984 H 35.79480251952262 43.769161199001246 88.98981720359058 H 0.0 **** 0.06
13985 H 35.25275147974318 45.21850774656332 88.11092299928376 H 0.0 **** 0.06
13986 C 78.2464994712553 19.12935213095085 37.1529991846851 C 0.0 **** -0.24
13987 H 78.66442071152724 19.464015073831206 36.20375390768625 H 0.0 **** 0.06
13988 H 77.78636733927883 19.974639222149477 37.665612350933785 H 0.0 **** 0.06
13989 H 79.04112217729192 18.71648164016193 37.77442719561739 H 0.0 **** 0.06
13990 H 77.49327767862064 18.363199030661917 36.9689002286959 H 0.0 **** 0.06
13991 C 39.04453675419302 103.90035138610517 1.9155481733913575 C 0.0 **** -0.24
13992 H 40.11911209635929 104.05131720916519 1.81034723329401 H 0.0 **** 0.06
13993 H 38.55918578820831 104.07015806192308 0.9537518035373864 H 0.0 **** 0.06
13994 H 38.64911997986533 104.60012112755551 2.65131709925771 H 0.0 **** 0.06
13995 H 38.851901544458315 102.8792748857934 2.2442585356811264 H 0.0 **** 0.06
13996 C 78.3609759913304 34.78098441832543 3.821787781827311 C 0.0 **** -0.24
13997 H 77.52603283732114 34.75425025564948 3.121562619013133 H 0.0 **** 0.06
13998 H 77.98158995422074 34.931299254364035 4.833144694869162 H 0.0 **** 0.06
13999 H 79.02918818874008 35.600112633988715 3.558293129072524 H 0.0 **** 0.06
14000 H 78.90538212301806 33.83818412062476 3.773896254330708 H 0.0 **** 0.06
14001 C 106.59186949157824 7.60976495947607 100.24956330471336 C 0.0 **** -0.24
14002 H 105.52332620297057 7.543719249601782 100.0424925216763 H 0.0 **** 0.06
14003 H 107.14647691720609 7.572873386455118 99.31088829817355 H 0.0 **** 0.06
14004 H 106.89101918563975 6.774013511942044 100.88165982677796 H 0.0 **** 0.06
14005 H 106.8053678466228 8.547421741895878 100.76140235212546 H 0.0 **** 0.06
14006 C 65.79804797377045 38.811812056177786 33.5789727100769 C 0.0 **** -0.24
14007 H 66.62739274723901 38.97211425799924 34.269076752349406 H 0.0 **** 0.06
14008 H 64.94877702096801 38.39727940337394 34.122478559745105 H 0.0 **** 0.06
14009 H 66.10510937020177 38.11651092269065 32.79822841334237 H 0.0 **** 0.06
14010 H 65.51221494929902 39.761632506729114 33.128161653463934 H 0.0 **** 0.06
14011 C 8.307658581261762 105.79771626799302 128.20610888931438 C 0.0 **** -0.24
14012 H 8.68289414525023 106.45333607102239 127.42022530113027 H 0.0 **** 0.06
14013 H 9.134575884643823 105.22436261059744 128.62527284822593 H 0.0 **** 0.06
14014 H 7.56825173383308 105.11615906924166 127.78698085942565 H 0.0 **** 0.06
14015 H 7.8467636222771375 106.39814840897795 128.98966047459257 H 0.0 **** 0.06
14016 C 36.57739454697336 48.86766336626329 55.43232131659454 C 0.0 **** -0.24
14017 H 36.165783828015236 49.035967152364606 54.43760202333067 H 0.0 **** 0.06
14018 H 35.93130929548821 49.33350406994424 56.176887889434965 H 0.0 **** 0.06
14019 H 37.57462634050698 49.30385935518382 55.49163302019946 H 0.0 **** 0.06
14020 H 36.63761579836728 47.796007086395264 55.623620315050005 H 0.0 **** 0.06
14021 C 112.25020435673616 20.258239330002937 71.83347041981119 C 0.0 **** -0.24
14022 H 112.86453073500363 19.379532057785497 72.03271334794161 H 0.0 **** 0.06
14023 H 112.81584874293833 20.96579576712992 71.22728284471708 H 0.0 **** 0.06
14024 H 111.97159792412666 20.72748210754571 72.77710739483553 H 0.0 **** 0.06
14025 H 111.34962200566522 19.957773600069743 71.29810248210583 H 0.0 **** 0.06
14026 C 131.42419445427663 90.52326110480408 71.98484900751248 C 0.0 **** -0.24
14027 H 131.36325832998097 91.60844676857027 71.90410301954279 H 0.0 **** 0.06
14028 H 131.80498186210025 90.11111218710562 71.04998521233594 H 0.0 **** 0.06
14029 H 130.43193207319928 90.11787240933694 72.18308734922363 H 0.0 **** 0.06
14030 H 132.09609671102385 90.25596917727717 72.80060353941565 H 0.0 **** 0.06
14031 C 7.557338665840149 2.763232120016191 113.34937663998417 C 0.0 **** -0.24
14032 H 7.55614526740672 1.711678823871793 113.05933977038308 H 0.0 **** 0.06
14033 H 8.558221006405773 3.0479119922935958 113.673100209502 H 0.0 **** 0.06
14034 H 6.852355972482087 2.914886167242564 114.16631879279765 H 0.0 **** 0.06
14035 H 7.262794130372669 3.3749039888467927 112.49690665209101 H 0.0 **** 0.06
14036 C 129.93442290604847 124.89580807343887 25.957060873820637 C 0.0 **** -0.24
14037 H 130.60866090914095 125.74521310005775 25.854045279365742 H 0.0 **** 0.06
14038 H 130.0519961307526 124.45643988314299 26.94881502710834 H 0.0 **** 0.06
14039 H 130.1703263902993 124.1498454487936 25.198273446550694 H 0.0 **** 0.06
14040 H 128.9047537042217 125.23220241306348 25.828509994898532 H 0.0 **** 0.06
14041 C 54.13421556770561 132.3870072394149 131.9300151177411 C 0.0 **** -0.24
14042 H 54.01669370792922 132.89075703082352 132.88912866308198 H 0.0 **** 0.06
14043 H 55.02593152226973 132.76384468081613 131.42783156673772 H 0.0 **** 0.06
14044 H 53.25896947426327 132.57854689360948 131.3094348348289 H 0.0 **** 0.06
14045 H 54.23551138679181 131.31349542851842 132.09381583936892 H 0.0 **** 0.06
14046 C 4.170863777258376 137.02850914651788 127.69412982968285 C 0.0 **** -0.24
14047 H 3.6394406432815174 137.44802792818103 126.84011432046933 H 0.0 **** 0.06
14048 H 3.59358233713985 137.20191541898623 128.60220496817365 H 0.0 **** 0.06
14049 H 5.146149714710873 137.50744199723613 127.78567634998753 H 0.0 **** 0.06
14050 H 4.3044655365994515 135.95640439017245 127.54714323701624 H 0.0 **** 0.06
14051 C 66.5678324777358 96.933953741108 73.12954435014582 C 0.0 **** -0.24
14052 H 65.52336598543334 96.62876322634109 73.19600919043648 H 0.0 **** 0.06
14053 H 66.76557333751356 97.33670428978316 72.1359817567065 H 0.0 **** 0.06
14054 H 67.21046943107555 96.07189972882735 73.30787460432657 H 0.0 **** 0.06
14055 H 66.77037530899196 97.70022459592964 73.87898515613472 H 0.0 **** 0.06
14056 C 124.09009396221549 66.07115155845065 108.40764920796326 C 0.0 **** -0.24
14057 H 125.0237727438404 65.66418101914674 108.02093623907888 H 0.0 **** 0.06
14058 H 124.29953739675315 66.9620802861929 108.99918998055995 H 0.0 **** 0.06
14059 H 123.60093712070494 65.32531300003137 109.03450765251245 H 0.0 **** 0.06
14060 H 123.43589166272511 66.33216729400486 107.57551987926263 H 0.0 **** 0.06
14061 C 73.76543409793544 14.565956780909787 7.168494412913752 C 0.0 **** -0.24
14062 H 73.73192932354416 13.493041085521142 7.357780974560352 H 0.0 **** 0.06
14063 H 72.79785677351418 15.006751198170178 7.408524547778779 H 0.0 **** 0.06
14064 H 73.99423876783817 14.742891394630405 6.117139254472821 H 0.0 **** 0.06
14065 H 74.53678506519901 15.02042108735239 7.789745499150609 H 0.0 **** 0.06
14066 C 17.46939877318539 50.93120701108829 29.504815027362568 C 0.0 **** -0.24
14067 H 17.34702231905797 51.629696655280156 30.33387255220549 H 0.0 **** 0.06
14068 H 18.06424148583251 50.07954973465017 29.833291881961912 H 0.0 **** 0.06
14069 H 17.974401519481205 51.43260009857012 28.67950706388126 H 0.0 **** 0.06
14070 H 16.489757356354716 50.58582739533114 29.17463375481759 H 0.0 **** 0.06
14071 C 70.02112525858502 93.01792367518945 74.15961364127702 C 0.0 **** -0.24
14072 H 69.01295384170706 92.96359750016407 74.57083637843061 H 0.0 **** 0.06
14073 H 70.37290726830537 92.0123597930324 73.92574224920861 H 0.0 **** 0.06
14074 H 70.68757147881502 93.47658962277961 74.88989237804796 H 0.0 **** 0.06
14075 H 70.00939799763029 93.6198234965691 73.25032425368323 H 0.0 **** 0.06
14076 C 72.88030576184386 136.95186108695148 135.72397744397824 C 0.0 **** -0.24
14077 H 72.0227438958977 136.30939375239697 135.52583002106002 H 0.0 **** 0.06
14078 H 72.60714140480205 137.9902761162899 135.53288692948524 H 0.0 **** 0.06
14079 H 73.70608222246436 136.66825452806862 135.07179602817655 H 0.0 **** 0.06
14080 H 73.18425350492211 136.8414588937368 136.76491028888165 H 0.0 **** 0.06
14081 C 69.72229172249084 112.04459767505162 130.30225557059686 C 0.0 **** -0.24
14082 H 68.78611487527346 112.05497587724892 130.85937872641531 H 0.0 **** 0.06
14083 H 70.41844828560663 111.3513910167998 130.77599568901425 H 0.0 **** 0.06
14084 H 70.15396262890418 113.04482457658776 130.29647831008367 H 0.0 **** 0.06
14085 H 69.53144063190554 111.72498033282221 129.27783101308614 H 0.0 **** 0.06
14086 C 105.11424060196458 80.50460547507976 75.74803810841283 C 0.0 **** -0.24
14087 H 105.33782876811561 79.4768450614967 75.45991663846695 H 0.0 **** 0.06
14088 H 104.04249498171156 80.68254643958767 75.65503574393946 H 0.0 **** 0.06
14089 H 105.65539050534537 81.1892600268987 75.09596301450614 H 0.0 **** 0.06
14090 H 105.42154919465935 80.66618423856391 76.78101427946575 H 0.0 **** 0.06
14091 C 4.79771897526274 104.41272229875653 86.04492514885641 C 0.0 **** -0.24
14092 H 5.339643226952262 104.2963324496771 86.98309173164591 H 0.0 **** 0.06
14093 H 5.418805124575584 104.06223497191485 85.22138363150165 H 0.0 **** 0.06
14094 H 4.553861502537899 105.4649285500584 85.89481969435514 H 0.0 **** 0.06
14095 H 3.8779833924730553 103.8281656774625 86.08143700343152 H 0.0 **** 0.06
14096 C 125.33960220723395 79.44734832673691 20.584463142237254 C 0.0 **** -0.24
14097 H 125.08086577394158 78.73799393449346 21.371002967816004 H 0.0 **** 0.06
14098 H 124.43455506444843 79.75771514408952 20.062836701730596 H 0.0 **** 0.06
14099 H 126.02190795540338 78.97289615524805 19.878481478856173 H 0.0 **** 0.06
14100 H 125.8224361421693 80.31863137230485 21.027115728741734 H 0.0 **** 0.06
14101 C 113.73670386215096 7.769608162378233 53.65080170373693 C 0.0 **** -0.24
14102 H 112.88103611381717 8.417771562080816 53.46164311466984 H 0.0 **** 0.06
14103 H 113.62806866454068 7.299507403571511 54.62851524096726 H 0.0 **** 0.06
14104 H 114.65182339379797 8.361394619376199 53.63015968420535 H 0.0 **** 0.06
14105 H 113.78507279113018 6.999226611795109 52.880640801377865 H 0.0 **** 0.06
14106 C 92.81225703856701 75.02908013185346 109.9794757476295 C 0.0 **** -0.24
14107 H 93.02211773537812 75.87885642689143 109.33046899552437 H 0.0 **** 0.06
14108 H 93.34203285936822 74.15002512130002 109.60969740292057 H 0.0 **** 0.06
14109 H 91.74011592906918 74.83143973985355 109.98474837265337 H 0.0 **** 0.06
14110 H 93.14476833894201 75.25426726535744 110.99296924421273 H 0.0 **** 0.06
14111 C 125.992269755613 67.84303537212946 54.24704174216572 C 0.0 **** -0.24
14112 H 126.50754475292948 67.26140323221614 55.01194489217593 H 0.0 **** 0.06
14113 H 126.10955990670328 68.90548409502006 54.459782852726164 H 0.0 **** 0.06
14114 H 124.93286445530299 67.58676525692562 54.24880117968905 H 0.0 **** 0.06
14115 H 126.41860153216899 67.61792287714343 53.270707511642286 H 0.0 **** 0.06
14116 C 58.61244204778144 63.24835431398107 9.26284357816644 C 0.0 **** -0.24
14117 H 59.06425341773712 62.79924425554637 10.146879023418848 H 0.0 **** 0.06
14118 H 59.35531941318584 63.30992979372785 8.467342000757498 H 0.0 **** 0.06
14119 H 58.25569675356918 64.24870042191928 9.506056397191458 H 0.0 **** 0.06
14120 H 57.77483079099315 62.63417313088533 8.931214341663576 H 0.0 **** 0.06
14121 C 131.31459849337767 60.161798122994995 87.23509302063792 C 0.0 **** -0.24
14122 H 131.88078770209552 60.217456243987655 88.16459987614166 H 0.0 **** 0.06
14123 H 130.7906165282904 61.10456795006709 87.07171583070806 H 0.0 **** 0.06
14124 H 130.58953591180995 59.350228606990115 87.29904809478046 H 0.0 **** 0.06
14125 H 131.99560277930334 59.976174626685534 86.40522912447597 H 0.0 **** 0.06
14126 C 85.86380936623402 85.77606520157747 113.69246331699028 C 0.0 **** -0.24
14127 H 86.75633593850546 86.28357649048611 114.05928711720398 H 0.0 **** 0.06
14128 H 85.75330848436937 84.82037225659901 114.20642020859543 H 0.0 **** 0.06
14129 H 85.95915581187023 85.60350562436076 112.62057092667138 H 0.0 **** 0.06
14130 H 84.98919471511886 86.39590938671151 113.88434442994554 H 0.0 **** 0.06
14131 C 55.03813548507431 3.733280015805292 11.707942642655087 C 0.0 **** -0.24
14132 H 54.59754509260753 4.658905295122054 12.07787100575689 H 0.0 **** 0.06
14133 H 54.38855412942401 3.302129944789783 10.946132466118392 H 0.0 **** 0.06
14134 H 55.148225703963504 3.02980406542531 12.532390171823454 H 0.0 **** 0.06
14135 H 56.015622428550714 3.943950239640742 11.276070770498993 H 0.0 **** 0.06
14136 C 104.22244666182849 90.56089087040414 10.55872687872045 C 0.0 **** -0.24
14137 H 104.44896425405062 89.86346014818696 11.365362014848785 H 0.0 **** 0.06
14138 H 104.16085665268781 91.57330086173965 10.960256242142577 H 0.0 **** 0.06
14139 H 103.27010111304253 90.29164792434597 10.10201772562209 H 0.0 **** 0.06
14140 H 105.01117119907883 90.51564278666251 9.807037896104603 H 0.0 **** 0.06
14141 C 48.59374733465762 1.4567200527444548 131.70040022268924 C 0.0 **** -0.24
14142 H 49.22235257381146 0.725794351413068 132.20915570438865 H 0.0 **** 0.06
14143 H 48.48708035652163 1.1769227060399352 130.65214420383623 H 0.0 **** 0.06
14144 H 49.05556671984334 2.441598710669389 131.76826726670478 H 0.0 **** 0.06
14145 H 47.61168963051844 1.4825527068541007 132.17236567709546 H 0.0 **** 0.06
14146 C 16.50040993976421 26.15453416760335 97.73080489937182 C 0.0 **** -0.24
14147 H 17.0166941253878 26.580266911092814 98.5907294855855 H 0.0 **** 0.06
14148 H 15.438734598869502 26.394555955585794 97.78863286826282 H 0.0 **** 0.06
14149 H 16.629358465845627 25.0716795700803 97.72898523001804 H 0.0 **** 0.06
14150 H 16.9184708389283 26.57120632228755 96.81377735406791 H 0.0 **** 0.06
14151 C 129.93437838864554 135.74280580324466 15.462545095573688 C 0.0 **** -0.24
14152 H 128.91180798977513 135.8374862127018 15.830082216446812 H 0.0 **** 0.06
14153 H 130.39309258774512 134.85241697477682 15.893920958196304 H 0.0 **** 0.06
14154 H 130.50698237905831 136.62362651143098 15.751348777828213 H 0.0 **** 0.06
14155 H 129.92272669180772 135.65588253529154 14.375963457213771 H 0.0 **** 0.06
14156 C 65.32371953653794 112.32557237413585 130.90836906441103 C 0.0 **** -0.24
14157 H 65.30386192118152 112.39321750706867 129.82099293886603 H 0.0 **** 0.06
14158 H 64.3027604065145 112.33908223475967 131.29156491447083 H 0.0 **** 0.06
14159 H 65.87627351572279 113.17302318306915 131.31556477133836 H 0.0 **** 0.06
14160 H 65.81198230273287 111.39696657164558 131.2053536329691 H 0.0 **** 0.06
14161 C 66.43907428644707 25.416845714209785 13.515272644269999 C 0.0 **** -0.24
14162 H 65.97378330039459 25.995129104371017 14.313600701497904 H 0.0 **** 0.06
14163 H 66.86257601785223 26.095598604890228 12.775603924179933 H 0.0 **** 0.06
14164 H 65.6892493692153 24.78315164123802 13.04184527956096 H 0.0 **** 0.06
14165 H 67.23014452684174 24.794578391484748 13.932788248516346 H 0.0 **** 0.06
14166 C 40.344924096413834 24.02863282030436 39.47845164954184 C 0.0 **** -0.24
14167 H 40.15352523132559 23.431048911939456 40.370049673232806 H 0.0 **** 0.06
14168 H 39.485650474584276 23.967097345762326 38.81058243032978 H 0.0 **** 0.06
14169 H 41.22966956724984 23.64800269988065 38.96859460860116 H 0.0 **** 0.06
14170 H 40.50978096726973 25.06690830267989 39.76587691458956 H 0.0 **** 0.06
14171 C 16.286708562768695 3.4936544047720304 18.842723828024234 C 0.0 **** -0.24
14172 H 16.85314776806416 4.229490779783191 18.270945400273646 H 0.0 **** 0.06
14173 H 15.6952479321223 2.882093408452562 18.16121334338493 H 0.0 **** 0.06
14174 H 15.625017722555555 4.00703121015286 19.53974212682263 H 0.0 **** 0.06
14175 H 16.975662853201015 2.856673453072318 19.397406001386557 H 0.0 **** 0.06
14176 C 105.99448681232747 79.81535184064461 130.2670937482617 C 0.0 **** -0.24
14177 H 106.10307172222375 80.42943119871192 131.1614314641144 H 0.0 **** 0.06
14178 H 106.97322761989074 79.44802250833831 129.95711520962266 H 0.0 **** 0.06
14179 H 105.56102878572341 80.41479067525914 129.46572158429518 H 0.0 **** 0.06
14180 H 105.34061037728208 78.97116224769316 130.48416185934622 H 0.0 **** 0.06
14181 C 117.74506522519198 70.69633943596762 30.76003453941638 C 0.0 **** -0.24
14182 H 118.5963033893369 71.149292398873 30.250941912934394 H 0.0 **** 0.06
14183 H 118.09037861920723 69.86249623312696 31.372081337291448 H 0.0 **** 0.06
14184 H 117.03229339473125 70.33353980977091 30.020411834111144 H 0.0 **** 0.06
14185 H 117.26387666547657 71.44001928136771 31.3946327453651 H 0.0 **** 0.06
14186 C 23.806279832505417 91.81662842919353 113.62595507032901 C 0.0 **** -0.24
14187 H 22.74354477937596 91.94770752051798 113.42377566749798 H 0.0 **** 0.06
14188 H 23.993152250959746 90.78669306175341 113.93139400151918 H 0.0 **** 0.06
14189 H 24.110570843358182 92.49414299900066 114.42407603488653 H 0.0 **** 0.06
14190 H 24.377851456328074 92.0379701355019 112.72457457741231 H 0.0 **** 0.06
14191 C 124.14460695514147 27.514958076110453 67.91548172313242 C 0.0 **** -0.24
14192 H 123.73159322394227 27.26987040839777 68.89419300556699 H 0.0 **** 0.06
14193 H 124.8409170379077 28.34785819278961 68.01420221757459 H 0.0 **** 0.06
14194 H 123.33641185869065 27.794608834767942 67.24000768211312 H 0.0 **** 0.06
14195 H 124.66929712403046 26.64786994821781 67.51547744488528 H 0.0 **** 0.06
14196 C 96.0712530297572 57.81921571681788 19.741091785854614 C 0.0 **** -0.24
14197 H 96.37202703071753 57.06413564227812 20.46689899923807 H 0.0 **** 0.06
14198 H 96.7065695490999 57.74516109467534 18.857487815276187 H 0.0 **** 0.06
14199 H 96.17609679337721 58.810467459934614 20.182398752849053 H 0.0 **** 0.06
14200 H 95.03190310831633 57.65641004980729 19.456161777139776 H 0.0 **** 0.06
14201 C 56.30550314998774 93.25772902621313 36.43964635071404 C 0.0 **** -0.24
14202 H 55.56723198297935 93.75207201956441 37.07153065839708 H 0.0 **** 0.06
14203 H 55.79717117102872 92.72824087077338 35.63291094006547 H 0.0 **** 0.06
14204 H 56.87812977548025 92.54886025417676 37.03674250616854 H 0.0 **** 0.06
14205 H 56.97860429586021 94.00341951207349 36.01675085301673 H 0.0 **** 0.06
14206 C 0.9796861002341792 114.62732584698978 106.14595695526121 C 0.0 **** -0.24
14207 H 0.6234328944198886 115.2157838282632 106.9904004614809 H 0.0 **** 0.06
14208 H 1.9795498419340412 114.9607090169635 105.86650702809209 H 0.0 **** 0.06
14209 H 0.30385675822739344 114.75645713376434 105.30081563351813 H 0.0 **** 0.06
14210 H 1.0132096509609099 113.57428048766673 106.42613497782904 H 0.0 **** 0.06
14211 C 43.609608543569124 36.58877994271285 23.05312241679374 C 0.0 **** -0.24
14212 H 43.11306341429833 37.487333672027916 22.685464641798646 H 0.0 **** 0.06
14213 H 44.65320252524657 36.815469689099814 23.272048057512677 H 0.0 **** 0.06
14214 H 43.55758284237947 35.808919590289776 22.293739645440212 H 0.0 **** 0.06
14215 H 43.11375640805049 36.245099439686996 23.960593851610852 H 0.0 **** 0.06
14216 C 101.08017542965763 103.685936036373 118.12232869174844 C 0.0 **** -0.24
14217 H 100.81318415512624 104.73075964992734 118.27549611282345 H 0.0 **** 0.06
14218 H 102.1300427814648 103.53722999951646 118.37548701171053 H 0.0 **** 0.06
14219 H 100.91749625719748 103.41875590192319 117.0776342976836 H 0.0 **** 0.06
14220 H 100.45968720359645 103.05487218794707 118.75885509086609 H 0.0 **** 0.06
14221 C 103.23081178687346 84.33172851542831 6.682809684556844 C 0.0 **** -0.24
14222 H 102.81504281834475 83.4308998729652 6.232355530655951 H 0.0 **** 0.06
14223 H 102.78602541587463 84.48307998807887 7.666754253222564 H 0.0 **** 0.06
14224 H 103.010800814979 85.18991141135503 6.048024414688257 H 0.0 **** 0.06
14225 H 104.31024508958365 84.22149814232364 6.785284359370081 H 0.0 **** 0.06
14226 C 3.6115629376549805 132.94102166987744 44.084235400907005 C 0.0 **** -0.24
14227 H 3.01256636054066 133.70489001734788 44.57957093281884 H 0.0 **** 0.06
14228 H 4.340517504156935 133.4191459349928 43.429602291157295 H 0.0 **** 0.06
14229 H 2.96113220509514 132.29556034489005 43.49372323758248 H 0.0 **** 0.06
14230 H 4.13105179871701 132.3446667409422 44.83401481120108 H 0.0 **** 0.06
14231 C 56.990113621972 82.14097436761688 56.40298795834073 C 0.0 **** -0.24
14232 H 57.95051089584206 81.63570085932332 56.506103568355 H 0.0 **** 0.06
14233 H 56.46905698338463 81.75370876052051 55.52575906841548 H 0.0 **** 0.06
14234 H 57.15317604380235 83.21228790227167 56.28585975879176 H 0.0 **** 0.06
14235 H 56.38658221175817 81.95986733727699 57.293095367421984 H 0.0 **** 0.06
14236 C 1.414267853882052 65.99923944857613 98.56053736761748 C 0.0 **** -0.24
14237 H 1.8203194681448167 66.71417758874514 97.84391496231376 H 0.0 **** 0.06
14238 H 1.5681432167439198 66.37267921298763 99.57293806711112 H 0.0 **** 0.06
14239 H 1.9221911626790416 65.04165189017544 98.44467514220398 H 0.0 **** 0.06
14240 H 0.34737716738334257 65.86934425307234 98.3788107447964 H 0.0 **** 0.06
14241 C 22.909206277662747 70.04577919335584 81.64598137503776 C 0.0 **** -0.24
14242 H 21.8704881597684 70.33904601620175 81.79873055484673 H 0.0 **** 0.06
14243 H 23.294858972920508 69.5860799686929 82.55601966479878 H 0.0 **** 0.06
14244 H 23.50310635978127 70.92714945574313 81.40392308486074 H 0.0 **** 0.06
14245 H 22.967627054654088 69.33192241451188 80.8247259066099 H 0.0 **** 0.06
14246 C 30.773551990570752 38.83556330430292 5.239978115327812 C 0.0 **** -0.24
14247 H 29.684802381168595 38.79844052967289 5.28450090550086 H 0.0 **** 0.06
14248 H 31.138616935780107 38.03310367106249 4.597956896816218 H 0.0 **** 0.06
14249 H 31.18285840729783 38.71277105189952 6.242238728659295 H 0.0 **** 0.06
14250 H 31.087774255588727 39.797741775563395 4.834247826160013 H 0.0 **** 0.06
14251 C 97.62049402706722 98.54824718941559 92.0685417988753 C 0.0 **** -0.24
14252 H 97.63975867507519 97.5359793121632 91.66587116660419 H 0.0 **** 0.06
14253 H 96.6421891357528 98.99277892195379 91.88557693025705 H 0.0 **** 0.06
14254 H 98.38977249799323 99.14791360392447 91.58199078593606 H 0.0 **** 0.06
14255 H 97.81001530134512 98.51577916188215 93.14201403039053 H 0.0 **** 0.06
14256 C 118.66509868413829 36.307040863827694 83.45573072876253 C 0.0 **** -0.24
14257 H 118.94482593934407 35.31233856708644 83.80430656782407 H 0.0 **** 0.06
14258 H 118.93884043795592 37.04541975470846 84.21025189451034 H 0.0 **** 0.06
14259 H 117.5901125616187 36.3423960994993 83.28437782477296 H 0.0 **** 0.06
14260 H 119.18926007176589 36.525936906729555 82.52563427829283 H 0.0 **** 0.06
14261 C 129.02120782213598 58.74426314917753 101.49167585561463 C 0.0 **** -0.24
14262 H 128.0235548494012 58.78264099632537 101.0532869998539 H 0.0 **** 0.06
14263 H 129.124323908792 59.5408615657567 102.22972611234889 H 0.0 **** 0.06
14264 H 129.76710971772349 58.87575712865731 100.70785013862385 H 0.0 **** 0.06
14265 H 129.16819720368042 57.779153490122496 101.97517608301382 H 0.0 **** 0.06
14266 C 32.46850619330276 55.22125146072011 67.66137539087202 C 0.0 **** -0.24
14267 H 33.534214651600095 55.14248888074256 67.44716291013648 H 0.0 **** 0.06
14268 H 32.05732447335143 54.22520734369999 67.82667145938606 H 0.0 **** 0.06
14269 H 31.961986910986894 55.6892052526246 66.81790548903737 H 0.0 **** 0.06
14270 H 32.322468341702006 55.82736615228336 68.55565275488723 H 0.0 **** 0.06
14271 C 35.093405560299836 92.0897801868258 35.60539212740059 C 0.0 **** -0.24
14272 H 34.01864195334153 91.93457653506584 35.69111846947817 H 0.0 **** 0.06
14273 H 35.29594014421243 92.7988187129263 34.80217098066191 H 0.0 **** 0.06
14274 H 35.58135341695647 91.1405488701009 35.38463242201942 H 0.0 **** 0.06
14275 H 35.478165315353614 92.48594240491957 36.54592365710255 H 0.0 **** 0.06
14276 C 134.75939958596376 61.40054500036362 92.0098744721627 C 0.0 **** -0.24
14277 H 133.87929155825148 62.03783868255448 92.09281819623783 H 0.0 **** 0.06
14278 H 135.6189240321472 62.004265641816176 91.71764818818006 H 0.0 **** 0.06
14279 H 134.5819519135451 60.632209259049716 91.25722011329546 H 0.0 **** 0.06
14280 H 134.95743083991118 60.92786641803394 92.97181139093745 H 0.0 **** 0.06
14281 C 38.048834103027076 43.14549965365953 122.0430099269845 C 0.0 **** -0.24
14282 H 37.510440967770755 42.20879204037473 122.19445575657828 H 0.0 **** 0.06
14283 H 39.103515510818774 42.93305445211655 121.86593576037367 H 0.0 **** 0.06
14284 H 37.947583958428645 43.769882581668156 122.93015556573359 H 0.0 **** 0.06
14285 H 37.63315690664993 43.66736891794042 121.18107025392695 H 0.0 **** 0.06
14286 C 20.122403890089046 59.403979143642644 92.12203122186959 C 0.0 **** -0.24
14287 H 20.185744786490602 58.3687065719145 92.45819744216627 H 0.0 **** 0.06
14288 H 19.23668109527796 59.872143889929504 92.55307765436632 H 0.0 **** 0.06
14289 H 20.054136474244373 59.42880319411573 91.03377920313804 H 0.0 **** 0.06
14290 H 21.01199288508993 59.94539005042802 92.44273307201664 H 0.0 **** 0.06
14291 C 84.92526110182175 62.22089459203602 80.5717973755319 C 0.0 **** -0.24
14292 H 85.4498082877602 63.14567108893743 80.80946454652667 H 0.0 **** 0.06
14293 H 85.62617375994972 61.5062628319352 80.14031393735826 H 0.0 **** 0.06
14294 H 84.13022081015708 62.42824905056892 79.8550525410842 H 0.0 **** 0.06
14295 H 84.49361879860727 61.804095886975034 81.48223895092497 H 0.0 **** 0.06
14296 C 116.5516463246363 41.20485208214694 58.83766907084657 C 0.0 **** -0.24
14297 H 117.14395035279364 40.77483926525383 58.02915868832969 H 0.0 **** 0.06
14298 H 117.17175308052532 41.887632317605096 59.41801017406675 H 0.0 **** 0.06
14299 H 116.1861631215466 40.40660077408285 59.48441707737044 H 0.0 **** 0.06
14300 H 115.70558436209183 41.74807317651175 58.41872876233566 H 0.0 **** 0.06
14301 C 130.21997353479406 102.56504206633072 34.09244645398962 C 0.0 **** -0.24
14302 H 129.7613243230291 103.22409569944419 33.35424773906897 H 0.0 **** 0.06
14303 H 129.44514573906116 101.97552103995217 34.58403161986848 H 0.0 **** 0.06
14304 H 130.74661052349964 103.16442914842125 34.834915752426696 H 0.0 **** 0.06
14305 H 130.9254360267369 101.89878732513422 33.59662055477426 H 0.0 **** 0.06
14306 C 134.82874100457818 46.343589718447035 49.535226404508634 C 0.0 **** -0.24
14307 H 134.53625423026784 47.311363299150386 49.94158069089036 H 0.0 **** 0.06
14308 H 135.64490112055466 46.47944968243284 48.82483647683608 H 0.0 **** 0.06
14309 H 133.97734778895006 45.88823276642118 49.02929784803483 H 0.0 **** 0.06
14310 H 135.1576120793394 45.69402302192151 50.346608558717435 H 0.0 **** 0.06
14311 C 131.48904934322252 34.13356392493563 26.037608890938145 C 0.0 **** -0.24
14312 H 132.227307962684 33.33342278051106 26.076651946208187 H 0.0 **** 0.06
14313 H 131.78096445334504 34.859503458173606 25.27890643814044 H 0.0 **** 0.06
14314 H 131.43401979350162 34.624836678940426 27.009106649817227 H 0.0 **** 0.06
14315 H 130.51390516335937 33.716492782117 25.785770529586557 H 0.0 **** 0.06
14316 C 130.67206483548514 115.8633403967321 135.4157767441351 C 0.0 **** -0.24
14317 H 131.59002886163594 115.36629954109179 135.1030204978988 H 0.0 **** 0.06
14318 H 129.8123788372603 115.322248763396 135.01853505202837 H 0.0 **** 0.06
14319 H 130.664725129156 116.88579163119726 135.03801535574848 H 0.0 **** 0.06
14320 H 130.62035737092134 115.878455746631 136.50457926967556 H 0.0 **** 0.06
14321 C 31.176765925424434 13.906015983249723 116.90017696478733 C 0.0 **** -0.24
14322 H 30.7131068957018 13.709636795883021 117.86652242410241 H 0.0 **** 0.06
14323 H 31.82434715742687 14.779153848635204 116.97942261830752 H 0.0 **** 0.06
14324 H 30.40031289107901 14.095800726530321 116.15767336469048 H 0.0 **** 0.06
14325 H 31.76596315861974 13.040799318743215 116.59744643592558 H 0.0 **** 0.06
14326 C 109.72388929371164 94.37191664938302 95.48016522887514 C 0.0 **** -0.24
14327 H 109.3133730478313 94.3211778078371 96.4880139208704 H 0.0 **** 0.06
14328 H 109.09872858711375 95.0196415167095 94.86541108452522 H 0.0 **** 0.06
14329 H 109.74897804463788 93.37210816593267 95.04637077553082 H 0.0 **** 0.06
14330 H 110.73624911627991 94.77592812038802 95.52019592758273 H 0.0 **** 0.06
14331 C 48.587286415558836 94.18833654551096 94.24937227791237 C 0.0 **** -0.24
14332 H 47.55870287422435 94.50383813040756 94.42385065492422 H 0.0 **** 0.06
14333 H 49.158308026254545 95.02083718717851 93.8382542104662 H 0.0 **** 0.06
14334 H 48.59682971741135 93.35683145934657 93.54431036419841 H 0.0 **** 0.06
14335 H 49.03391671345598 93.87015260818382 95.19155083614692 H 0.0 **** 0.06
14336 C 80.01384602582476 11.178352907882712 27.763449472544153 C 0.0 **** -0.24
14337 H 80.54417444866652 10.375160114240654 28.27430182552262 H 0.0 **** 0.06
14338 H 79.82058486177579 11.990688014004839 28.464881516748775 H 0.0 **** 0.06
14339 H 79.06831637760666 10.79941671006338 27.374701309964955 H 0.0 **** 0.06
14340 H 80.62364325243146 11.547938946180253 26.937869885942888 H 0.0 **** 0.06
14341 C 43.16268300839869 65.77447270714842 92.65514023802251 C 0.0 **** -0.24
14342 H 42.74571049317285 64.98795527116158 93.28428832518608 H 0.0 **** 0.06
14343 H 43.37940627647953 66.6508453098873 93.26662056095572 H 0.0 **** 0.06
14344 H 42.44215037093903 66.03946202470158 91.88162461197459 H 0.0 **** 0.06
14345 H 44.08163032677547 65.41957080427073 92.19017953218682 H 0.0 **** 0.06
14346 C 112.52182675185139 93.21470917632169 131.83588405018725 C 0.0 **** -0.24
14347 H 112.23334486093793 93.60294841438215 130.85909924659416 H 0.0 **** 0.06
14348 H 112.6956547474717 92.14168118045822 131.76283779049297 H 0.0 **** 0.06
14349 H 111.72293596537634 93.40616655476538 132.5520695230539 H 0.0 **** 0.06
14350 H 113.4338376579484 93.70925883687045 132.16845095860367 H 0.0 **** 0.06
14351 C 49.02610930240897 103.22629980712958 46.48091584864943 C 0.0 **** -0.24
14352 H 48.50893746651421 103.30615984167412 45.52500962644382 H 0.0 **** 0.06
14353 H 48.80862446280629 104.10811855161961 47.08471397047515 H 0.0 **** 0.06
14354 H 50.10013690399593 103.15942795343696 46.30800570171152 H 0.0 **** 0.06
14355 H 48.68634289462315 102.33366134658695 47.00486562382383 H 0.0 **** 0.06
14356 C 118.78109752649544 66.65635162691483 126.25686320222385 C 0.0 **** -0.24
14357 H 119.37971448519266 67.00861606139657 125.41697657014794 H 0.0 **** 0.06
14358 H 118.35700249747407 65.6805319454168 126.01654778954611 H 0.0 **** 0.06
14359 H 117.97660806506497 67.36494075717741 126.45157881969854 H 0.0 **** 0.06
14360 H 119.41265879403356 66.5705606430652 127.14097593497303 H 0.0 **** 0.06
14361 C 120.24468340795318 22.654246690464646 47.97478048518076 C 0.0 **** -0.24
14362 H 119.99608803996875 23.68789536000432 48.21507785674697 H 0.0 **** 0.06
14363 H 119.4391078310777 21.999937272368925 48.30855174592381 H 0.0 **** 0.06
14364 H 121.17090279297742 22.37757366272544 48.47850734723585 H 0.0 **** 0.06
14365 H 120.3721745445211 22.552465826630396 46.896920224613154 H 0.0 **** 0.06
14366 C 14.739974059380323 119.53785786594743 85.87804513122069 C 0.0 **** -0.24
14367 H 15.611733452628094 119.40430439406549 86.51916144363975 H 0.0 **** 0.06
14368 H 14.799438608409908 118.84744844768463 85.03542780296323 H 0.0 **** 0.06
14369 H 14.713710596107674 120.56257436856886 85.50836101058871 H 0.0 **** 0.06
14370 H 13.834940178296144 119.3345103972262 86.45035583096796 H 0.0 **** 0.06
14371 C 67.85015687391025 63.32441356056091 131.5478695809053 C 0.0 **** -0.24
14372 H 68.18970387584888 64.33376416834165 131.78054586096107 H 0.0 **** 0.06
14373 H 66.79538498698791 63.22689223267355 131.8037677889036 H 0.0 **** 0.06
14374 H 68.43224860830634 62.60421776363603 132.12314195538997 H 0.0 **** 0.06
14375 H 67.98536707152081 63.13278354182518 130.4831944096099 H 0.0 **** 0.06
14376 C 110.76347562534312 68.73798149553132 19.895768980118874 C 0.0 **** -0.24
14377 H 110.81514570272114 67.64931501943848 19.86977688389078 H 0.0 **** 0.06
14378 H 111.30012275718869 69.14708211423894 19.03961618240919 H 0.0 **** 0.06
14379 H 111.21782441478135 69.10153571268864 20.81783058489202 H 0.0 **** 0.06
14380 H 109.72109177952893 69.05303521814449 19.855905466660374 H 0.0 **** 0.06
14381 C 124.25542704243014 95.5023648706635 107.80143110738175 C 0.0 **** -0.24
14382 H 123.60236656049233 95.95534825148404 108.54798195495289 H 0.0 **** 0.06
14383 H 125.20713506911972 96.03449917278895 107.78071792727673 H 0.0 **** 0.06
14384 H 123.78419146233784 95.56310090685572 106.82105966391828 H 0.0 **** 0.06
14385 H 124.42919874988246 94.45753834207093 108.05755988546326 H 0.0 **** 0.06
14386 C 73.54219043033417 56.265960126734115 58.77850475879178 C 0.0 **** -0.24
14387 H 72.47524068823702 56.195405734497626 58.99139302582482 H 0.0 **** 0.06
14388 H 73.72585884222273 57.12175165450205 58.127644625698295 H 0.0 **** 0.06
14389 H 73.8760432800155 55.35436313447657 58.283703563466005 H 0.0 **** 0.06
14390 H 74.09121549056383 56.394513486284225 59.71143915571824 H 0.0 **** 0.06
14391 C 31.132377196601595 128.8580812581364 75.88234893135888 C 0.0 **** -0.24
14392 H 31.806564614494448 129.58492796804768 75.428783865774 H 0.0 **** 0.06
14393 H 31.6248640810755 127.88648502212226 75.93025006579694 H 0.0 **** 0.06
14394 H 30.22666898544736 128.77779836983643 75.28166321357676 H 0.0 **** 0.06
14395 H 30.872342704934482 129.18374742224898 76.88955331784126 H 0.0 **** 0.06
14396 C 74.64021729027544 101.74750122725413 111.7014636022985 C 0.0 **** -0.24
14397 H 75.06245730025745 100.74303954842281 111.72750515696796 H 0.0 **** 0.06
14398 H 75.34714053388979 102.4258433092748 111.22188494157837 H 0.0 **** 0.06
14399 H 74.44496451387181 102.0850167346199 112.71916870779816 H 0.0 **** 0.06
14400 H 73.70863601546893 101.73536981142229 111.13748033593154 H 0.0 **** 0.06
14401 C 123.58403340561009 59.46203648338354 50.4556057137238 C 0.0 **** -0.24
14402 H 123.30209576789454 60.34863831475241 49.88729378993422 H 0.0 **** 0.06
14403 H 123.71627610241677 59.729617589248846 51.50425880855536 H 0.0 **** 0.06
14404 H 124.51878317545743 59.060653103268464 50.06234450601394 H 0.0 **** 0.06
14405 H 122.79987315274035 58.70935164684636 50.36809375595644 H 0.0 **** 0.06
14406 C 108.13434711093986 67.97067350826902 23.972551371773875 C 0.0 **** -0.24
14407 H 107.33223460052153 68.33553655702904 24.61419266038888 H 0.0 **** 0.06
14408 H 107.70593036002477 67.53328499384085 23.06959537446579 H 0.0 **** 0.06
14409 H 108.71113638212177 67.21446882580828 24.50476717576089 H 0.0 **** 0.06
14410 H 108.78719404233995 68.8000205403727 23.699695249124687 H 0.0 **** 0.06
14411 C 49.27069221467778 56.354792565894186 129.8547402190867 C 0.0 **** -0.24
14412 H 49.17537657604419 56.25089000537524 130.93648110247142 H 0.0 **** 0.06
14413 H 49.234046890044056 57.41034665234426 129.58622815046527 H 0.0 **** 0.06
14414 H 48.451014365734125 55.82618493427326 129.36695511276778 H 0.0 **** 0.06
14415 H 50.22031164222733 55.92977163375541 129.5315357090519 H 0.0 **** 0.06
14416 C 124.94117629669745 104.4333288802134 111.15804586264483 C 0.0 **** -0.24
14417 H 124.14015702182257 104.32664798523786 110.42614942408451 H 0.0 **** 0.06
14418 H 125.11663233453442 103.47433650806951 111.6456828969537 H 0.0 **** 0.06
14419 H 124.65481728520217 105.1738812787238 111.90523308919046 H 0.0 **** 0.06
14420 H 125.85207122606926 104.75749829791471 110.65531665858711 H 0.0 **** 0.06
14421 C 79.44903435419297 63.620412921720686 68.66073547954602 C 0.0 **** -0.24
14422 H 80.36364643167343 64.18460646486048 68.84905318179972 H 0.0 **** 0.06
14423 H 79.47598655588803 63.2132936940655 67.64981036318709 H 0.0 **** 0.06
14424 H 78.58848578505439 64.28059486040195 68.76408431486401 H 0.0 **** 0.06
14425 H 79.37113864915386 62.80520394020692 69.38026772300955 H 0.0 **** 0.06
14426 C 133.57904091796198 119.52819551029793 67.06955855383805 C 0.0 **** -0.24
14427 H 134.0420580840704 119.23668947963247 68.01154758509772 H 0.0 **** 0.06
14428 H 132.80803175426541 118.80380720497672 66.8047896550245 H 0.0 **** 0.06
14429 H 134.3352887761544 119.55646662234511 66.2854221123679 H 0.0 **** 0.06
14430 H 133.1283638354468 120.51550439755168 67.17667273904931 H 0.0 **** 0.06
14431 C 80.39252929739311 8.492060257566834 74.9310976404847 C 0.0 **** -0.24
14432 H 81.2997759643082 9.089466924710251 74.84488401143983 H 0.0 **** 0.06
14433 H 80.20486603905843 7.978058017167854 73.98780271734046 H 0.0 **** 0.06
14434 H 79.55055603254345 9.142948479479571 75.16480592789205 H 0.0 **** 0.06
14435 H 80.516190310605 7.757261490527071 75.72725581154373 H 0.0 **** 0.06
14436 C 22.685797480373594 81.62886548021143 15.742421954488123 C 0.0 **** -0.24
14437 H 21.91485497659241 82.24408330976945 15.27809905434242 H 0.0 **** 0.06
14438 H 22.22902953157518 80.96783819546744 16.47957802541214 H 0.0 **** 0.06
14439 H 23.41648698024531 82.2714424790241 16.233075286037774 H 0.0 **** 0.06
14440 H 23.183858299095903 81.03298559794152 14.977165998086178 H 0.0 **** 0.06
14441 C 118.39785446103781 91.82321582110323 96.0814701605173 C 0.0 **** -0.24
14442 H 117.92578568888356 92.21323419467416 95.18011907920085 H 0.0 **** 0.06
14443 H 118.90932934636496 92.63301492364323 96.60274932170832 H 0.0 **** 0.06
14444 H 119.11915015185441 91.05275296019708 95.80872013553166 H 0.0 **** 0.06
14445 H 117.63657783860836 91.39399439517352 96.73348470812738 H 0.0 **** 0.06
14446 C 125.76088947318665 19.864457517041814 85.26358845471515 C 0.0 **** -0.24
14447 H 124.74441844930722 19.474259028620118 85.32434952870977 H 0.0 **** 0.06
14448 H 125.73579644464658 20.881672336241706 84.87276315709806 H 0.0 **** 0.06
14449 H 126.35280949833728 19.234267804418636 84.59925065918691 H 0.0 **** 0.06
14450 H 126.20908545230381 19.86764394524417 86.25704014477452 H 0.0 **** 0.06
14451 C 73.1502662526807 123.61890699326193 135.36416697478893 C 0.0 **** -0.24
14452 H 73.13826384248667 122.54784479872586 135.1655776572693 H 0.0 **** 0.06
14453 H 73.36501739907123 124.15709886921383 134.4406522012639 H 0.0 **** 0.06
14454 H 73.92049308330454 123.84230975556642 136.10253741600377 H 0.0 **** 0.06
14455 H 72.1786736449429 123.92834357462351 135.74760641818904 H 0.0 **** 0.06
14456 C 106.2132830104689 33.86509260972065 97.4307717442411 C 0.0 **** -0.24
14457 H 105.8310577738144 33.66654213245937 96.42936341135885 H 0.0 **** 0.06
14458 H 105.95302475458283 34.88232071349512 97.72248335338887 H 0.0 **** 0.06
14459 H 107.29662079464885 33.75082497603907 97.43526062177506 H 0.0 **** 0.06
14460 H 105.77069463307095 33.15983129394661 98.13447344506093 H 0.0 **** 0.06
14461 C 94.90227304370998 4.108933674619607 77.30494210327191 C 0.0 **** -0.24
14462 H 94.6300298316241 3.8910565306221088 76.27243533583459 H 0.0 **** 0.06
14463 H 95.25501267614813 5.136779157089961 77.37825235229616 H 0.0 **** 0.06
14464 H 95.6925723907282 3.428827848726371 77.62288403861135 H 0.0 **** 0.06
14465 H 94.03019521238814 3.9763592506816394 77.94614908459772 H 0.0 **** 0.06
14466 C 97.76649442046177 17.68049671008032 9.08102209139193 C 0.0 **** -0.24
14467 H 98.03348243315831 18.455881472216845 9.798838166643378 H 0.0 **** 0.06
14468 H 96.99965703438048 17.03601253925416 9.510480618229337 H 0.0 **** 0.06
14469 H 98.64873188541111 17.085935952531315 8.84217557265157 H 0.0 **** 0.06
14470 H 97.38451839042818 18.144088285770238 8.171242862853632 H 0.0 **** 0.06
14471 C 5.341547707995602 117.785471322624 131.14744912913767 C 0.0 **** -0.24
14472 H 4.934292049167965 118.77091604858856 130.91970889177122 H 0.0 **** 0.06
14473 H 4.673746498121858 117.01808166014968 130.75484404418833 H 0.0 **** 0.06
14474 H 5.433317452138908 117.67092056184251 132.22769378487274 H 0.0 **** 0.06
14475 H 6.323453258492549 117.68283482226653 130.68602061164648 H 0.0 **** 0.06
14476 C 79.8513055085536 99.75240114979144 57.51320587191705 C 0.0 **** -0.24
14477 H 78.89616299793694 99.51967176829953 57.98315676798373 H 0.0 **** 0.06
14478 H 80.62187975603045 99.0897039345569 57.90933826639764 H 0.0 **** 0.06
14479 H 80.11865345418327 100.78734733194652 57.72493094376205 H 0.0 **** 0.06
14480 H 79.77042209243182 99.61133595225355 56.43527286945242 H 0.0 **** 0.06
14481 C 48.65196096309097 99.30879736860322 81.90361331812508 C 0.0 **** -0.24
14482 H 49.20973911908209 100.08614282876897 81.37935505670342 H 0.0 **** 0.06
14483 H 49.27987321061474 98.87346675153529 82.68055250076544 H 0.0 **** 0.06
14484 H 48.35749596985909 98.53395257093501 81.19586691979815 H 0.0 **** 0.06
14485 H 47.761187526633535 99.74453602711742 82.35636885803049 H 0.0 **** 0.06
14486 C 11.284016806202416 123.54809304689007 26.93642744692133 C 0.0 **** -0.24
14487 H 11.134355761999913 123.83686183223048 25.896087491966284 H 0.0 **** 0.06
14488 H 10.359457086768856 123.70353969287422 27.493414680698265 H 0.0 **** 0.06
14489 H 12.076222185565612 124.15819685558267 27.37163899709614 H 0.0 **** 0.06
14490 H 11.565186623971755 122.49663106922281 26.984917166727655 H 0.0 **** 0.06
14491 C 15.812587910848066 91.57796400325917 75.11278081612465 C 0.0 **** -0.24
14492 H 16.019296700459563 90.58224303875141 74.7205980856848 H 0.0 **** 0.06
14493 H 14.960584376707573 91.53205527711104 75.79093671246932 H 0.0 **** 0.06
14494 H 15.585183356754584 92.25279417667372 74.28712804375766 H 0.0 **** 0.06
14495 H 16.686640397429585 91.9450273920765 75.65043569242778 H 0.0 **** 0.06
14496 C 33.667811604242615 124.38898945697026 123.38122879413663 C 0.0 **** -0.24
14497 H 33.2675806260998 124.34343240257496 122.36794313710294 H 0.0 **** 0.06
14498 H 34.25692621211951 125.2993495805858 123.49784160033133 H 0.0 **** 0.06
14499 H 34.301037272214074 123.52033819603129 123.56064809205053 H 0.0 **** 0.06
14500 H 32.8453869334098 124.39412204188234 124.09736386015756 H 0.0 **** 0.06
14501 C 64.57977673083195 88.54795411367617 6.552466258253105 C 0.0 **** -0.24
14502 H 65.33336918773205 89.17252492838145 7.031376200798093 H 0.0 **** 0.06
14503 H 63.816476214020724 88.27541036700144 7.282206863206227 H 0.0 **** 0.06
14504 H 65.05108540970102 87.64425665029812 6.1640551897559135 H 0.0 **** 0.06
14505 H 64.11916418421089 89.0986340002919 5.732020143819852 H 0.0 **** 0.06
14506 C 11.589977093360204 6.408571941928528 66.95756235951382 C 0.0 **** -0.24
14507 H 11.152511965171811 5.474231964107105 67.31185773382052 H 0.0 **** 0.06
14508 H 10.863572013801559 7.2141299249061035 67.06614905815496 H 0.0 **** 0.06
14509 H 11.864094851298262 6.304432745514987 65.90708646332112 H 0.0 **** 0.06
14510 H 12.47858507637946 6.638161100757316 67.54438913767115 H 0.0 **** 0.06
14511 C 24.955376945128506 65.0402972160106 28.834882041405052 C 0.0 **** -0.24
14512 H 25.235026305373765 64.58862683202092 27.882219331440453 H 0.0 **** 0.06
14513 H 24.876383215851106 64.26343381645682 29.595186781579017 H 0.0 **** 0.06
14514 H 23.995351725023284 65.54481093190749 28.729537316956126 H 0.0 **** 0.06
14515 H 25.715295250913442 65.76340785032336 29.129778981170432 H 0.0 **** 0.06
14516 C 133.94077627504834 66.23672768179932 6.61350779779454 C 0.0 **** -0.24
14517 H 133.4686374975554 67.20938399589039 6.4711674175956375 H 0.0 **** 0.06
14518 H 133.19420651845397 65.45045930320194 6.495009832325223 H 0.0 **** 0.06
14519 H 134.36803850433205 66.1844677410305 7.615403996598161 H 0.0 **** 0.06
14520 H 134.72950553557754 66.10461562030763 5.874048172572429 H 0.0 **** 0.06
14521 C 55.83502951753607 35.663532283007974 116.11485865553936 C 0.0 **** -0.24
14522 H 55.08966582156144 36.29473328551762 115.6309585431278 H 0.0 **** 0.06
14523 H 55.3335278363068 34.898735732835 116.70792556950244 H 0.0 **** 0.06
14524 H 56.46175400974796 36.274398301514374 116.76401514286903 H 0.0 **** 0.06
14525 H 56.454680440836995 35.186587411900405 115.35524928149519 H 0.0 **** 0.06
14526 C 32.040964874178854 32.78803504692769 46.90001230404965 C 0.0 **** -0.24
14527 H 31.40360439162265 31.95011147840455 46.61641787289794 H 0.0 **** 0.06
14528 H 32.749471517598806 32.99188854593359 46.097180971950806 H 0.0 **** 0.06
14529 H 32.58511981607343 32.539692422868995 47.811065753625016 H 0.0 **** 0.06
14530 H 31.424292841028745 33.670429451561574 47.07392845813095 H 0.0 **** 0.06
14531 C 118.2868127828186 85.98495496538891 80.20221252200201 C 0.0 **** -0.24
14532 H 117.35833400564866 85.42215733386885 80.11083963426935 H 0.0 **** 0.06
14533 H 118.09918888092344 87.03463806073954 79.97369822028696 H 0.0 **** 0.06
14534 H 119.02248134987573 85.58751058225552 79.50270998388487 H 0.0 **** 0.06
14535 H 118.66732530143675 85.89684198968177 81.21980496793304 H 0.0 **** 0.06
14536 C 73.75500831293984 45.39405240067893 93.47010542379837 C 0.0 **** -0.24
14537 H 73.55663944655824 44.33424942616364 93.30740461957544 H 0.0 **** 0.06
14538 H 74.63160240953837 45.69122104988551 92.89482320972866 H 0.0 **** 0.06
14539 H 73.93746554160201 45.57054010895405 94.52980088831083 H 0.0 **** 0.06
14540 H 72.89261197571172 45.97803027598525 93.14722695980714 H 0.0 **** 0.06
14541 C 46.73365223421658 102.24630517860409 59.83633648571184 C 0.0 **** -0.24
14542 H 45.76250709747006 101.9375173965556 60.22502190854814 H 0.0 **** 0.06
14543 H 47.31729962264616 101.36352485916036 59.57735647667498 H 0.0 **** 0.06
14544 H 47.26225925393345 102.82186524917499 60.59607609656071 H 0.0 **** 0.06
14545 H 46.58987056754316 102.86165302875949 58.94844803689658 H 0.0 **** 0.06
14546 C 15.69728879644066 81.24143415343565 22.88918594688755 C 0.0 **** -0.24
14547 H 16.367789788215305 80.63618289355946 23.50001115614856 H 0.0 **** 0.06
14548 H 16.199976520126597 81.51556347893904 21.96238922345549 H 0.0 **** 0.06
14549 H 15.423902031606815 82.14426485674505 23.436100473596582 H 0.0 **** 0.06
14550 H 14.798752037551196 80.66886017631282 22.660153688845014 H 0.0 **** 0.06
14551 C 20.315057428788748 23.44703105396762 56.130909339497606 C 0.0 **** -0.24
14552 H 19.57391450531017 22.79316508644572 55.67070118054727 H 0.0 **** 0.06
14553 H 21.141574712765234 23.602412386648957 55.43763242978844 H 0.0 **** 0.06
14554 H 20.688276867886913 22.987271176866592 57.04498651336445 H 0.0 **** 0.06
14555 H 19.85456833014004 24.406473594263517 56.36787324587493 H 0.0 **** 0.06
14556 C 74.09163135715872 118.93119422122746 41.20055178863689 C 0.0 **** -0.24
14557 H 74.0105020557603 119.25887570799017 42.23665743591465 H 0.0 **** 0.06
14558 H 73.33228408251634 118.1756756320544 40.99768616445419 H 0.0 **** 0.06
14559 H 75.08180131353706 118.50789724179668 41.03040124317993 H 0.0 **** 0.06
14560 H 73.94203757431632 119.78404089107866 40.53770160514246 H 0.0 **** 0.06
14561 C 27.375728789786706 54.8004184160437 122.20520955011622 C 0.0 **** -0.24
14562 H 27.47402791013087 54.997134493844584 121.13716733439878 H 0.0 **** 0.06
14563 H 27.650929115521734 55.694182663879616 122.76549459261389 H 0.0 **** 0.06
14564 H 28.035597056082253 53.97830382431545 122.48498374328734 H 0.0 **** 0.06
14565 H 26.343787448191733 54.531539669574954 122.43154859700199 H 0.0 **** 0.06
14566 C 74.61516688052092 55.594627848577375 91.33004140064799 C 0.0 **** -0.24
14567 H 75.32240334881209 55.92330268051455 92.09182976661975 H 0.0 **** 0.06
14568 H 75.15889705355852 55.12841125303282 90.50857646954412 H 0.0 **** 0.06
14569 H 74.05919497690263 56.455133268687064 90.95676166141686 H 0.0 **** 0.06
14570 H 73.92245263883586 54.874367308737305 91.76421964896934 H 0.0 **** 0.06
14571 C 36.80322392081132 30.518193862538595 73.36882619966315 C 0.0 **** -0.24
14572 H 36.305821014075946 29.867366493525964 74.08707343329218 H 0.0 **** 0.06
14573 H 37.64183825153128 31.019204980856244 73.85289019205484 H 0.0 **** 0.06
14574 H 36.096034269369355 31.263876687469292 73.00369602124272 H 0.0 **** 0.06
14575 H 37.16870799486851 29.9231192448853 72.53200384905895 H 0.0 **** 0.06
14576 C 124.47367388213873 91.45018667795793 35.788754386377036 C 0.0 **** -0.24
14577 H 125.15857780639294 91.5475867564549 34.94638635282237 H 0.0 **** 0.06
14578 H 123.77374593357283 92.28589182422229 35.78561641125364 H 0.0 **** 0.06
14579 H 125.040889306168 91.45438285504225 36.71967657912708 H 0.0 **** 0.06
14580 H 123.92283991297721 90.51328038063913 35.7033751805603 H 0.0 **** 0.06
14581 C 46.62518246275283 125.43479855685962 28.351652767062504 C 0.0 **** -0.24
14582 H 47.155159627546766 125.42397501366645 27.39982974537584 H 0.0 **** 0.06
14583 H 45.87457196020651 124.64365733987864 28.359240206008224 H 0.0 **** 0.06
14584 H 46.13665247645855 126.40092581421555 28.483973230503835 H 0.0 **** 0.06
14585 H 47.33327436995836 125.27256972634495 29.163904384363363 H 0.0 **** 0.06
14586 C 107.9193950948232 122.47987576572804 32.45510267111783 C 0.0 **** -0.24
14587 H 108.29025117113598 121.73405882672806 31.75203871614002 H 0.0 **** 0.06
14588 H 106.89255269010916 122.7411951622906 32.19905791400535 H 0.0 **** 0.06
14589 H 108.54588692569436 123.37088955828568 32.40211663262096 H 0.0 **** 0.06
14590 H 107.94996280876275 122.0728746017434 33.465296554320474 H 0.0 **** 0.06
14591 C 104.98821417818351 55.38716981567728 105.07812349366853 C 0.0 **** -0.24
14592 H 104.82707843168413 56.13983637447764 104.30609084991654 H 0.0 **** 0.06
14593 H 104.46186187275441 55.680164049282396 105.98676187644917 H 0.0 **** 0.06
14594 H 106.05528572243895 55.30458526743176 105.28630419896729 H 0.0 **** 0.06
14595 H 104.6102432597221 54.42550755100753 104.73149296737402 H 0.0 **** 0.06
14596 C 27.60907365068323 89.43466872054378 105.94641732464311 C 0.0 **** -0.24
14597 H 28.55246649429094 88.89315230081982 106.0064249301995 H 0.0 **** 0.06
14598 H 27.71784646295231 90.27910418508678 105.26423451620951 H 0.0 **** 0.06
14599 H 27.336020751515036 89.80080524642702 106.93633714033353 H 0.0 **** 0.06
14600 H 26.829975650717415 88.76775379864308 105.5780264636735 H 0.0 **** 0.06
14601 C 43.453320489787586 90.07406591853187 93.0873608696104 C 0.0 **** -0.24
14602 H 43.60135889466015 89.47079775940651 92.19239150634121 H 0.0 **** 0.06
14603 H 43.78767591915957 91.09412415296097 92.8975511804885 H 0.0 **** 0.06
14604 H 44.0294692534783 89.64980310859004 93.91011160184425 H 0.0 **** 0.06
14605 H 42.395530640495195 90.08049679244854 93.34997909519234 H 0.0 **** 0.06
14606 C 76.86315970880648 33.67914979264481 100.05574193129183 C 0.0 **** -0.24
14607 H 77.71309860683566 33.153897698820344 99.6194447913039 H 0.0 **** 0.06
14608 H 76.91128596620575 33.60667290098286 101.14296964263441 H 0.0 **** 0.06
14609 H 75.9362055614606 33.228754954227895 99.70180616572001 H 0.0 **** 0.06
14610 H 76.89356081137235 34.727629383845624 99.75951334353101 H 0.0 **** 0.06
14611 C 69.33954383191906 76.65464517576015 4.495507525659754 C 0.0 **** -0.24
14612 H 69.3116365149736 77.4556514424387 3.756577746608066 H 0.0 **** 0.06
14613 H 69.08516894415152 75.70966641269902 4.015298587307065 H 0.0 **** 0.06
14614 H 68.61942126956131 76.86560522638052 5.286629168356864 H 0.0 **** 0.06
14615 H 70.33980003933178 76.58780710952911 4.9229232880808524 H 0.0 **** 0.06
14616 C 0.49803808973715036 25.267139052656603 102.96339918452728 C 0.0 **** -0.24
14617 H 0.13354444815612965 25.457470554224273 101.95434946934752 H 0.0 **** 0.06
14618 H 1.4436395137939257 24.72562091968942 102.91258375736746 H 0.0 **** 0.06
14619 H -0.23395785523086943 24.67039506906451 103.50787290197194 H 0.0 **** 0.06
14620 H 0.6511120003572728 26.215444941997816 103.47907680169487 H 0.0 **** 0.06
14621 C 62.927421539986554 26.163831918923748 23.671906148522964 C 0.0 **** -0.24
14622 H 63.018941841459934 25.26543521875655 23.06136583672486 H 0.0 **** 0.06
14623 H 62.752065512986434 25.880892224449013 24.710341752509407 H 0.0 **** 0.06
14624 H 62.091132008774395 26.76352727304402 23.312795638823218 H 0.0 **** 0.06
14625 H 63.84716400863937 26.74436916040571 23.60391835640695 H 0.0 **** 0.06
14626 C 51.9531623587589 126.97765077505875 117.69418018832323 C 0.0 **** -0.24
14627 H 52.44762537940049 126.50031099654058 118.54098723859786 H 0.0 **** 0.06
14628 H 51.3942776607944 126.22939837714384 117.13155479190402 H 0.0 **** 0.06
14629 H 52.7021070617172 127.43425172114846 117.04679893399981 H 0.0 **** 0.06
14630 H 51.27015135568455 127.74507355648979 118.05788376053422 H 0.0 **** 0.06
14631 C 8.994961009319173 24.99328919229255 115.93456025945073 C 0.0 **** -0.24
14632 H 8.497781286368749 24.02407456049685 115.97245983400231 H 0.0 **** 0.06
14633 H 8.441870188827185 25.660202209244403 115.27241399077553 H 0.0 **** 0.06
14634 H 10.00962345463751 24.86675701613742 115.5574425367029 H 0.0 **** 0.06
14635 H 9.030569107443249 25.4221229832916 116.93592467632246 H 0.0 **** 0.06
14636 C 104.72727280649531 11.178102935063663 11.174763410581932 C 0.0 **** -0.24
14637 H 105.6350179710928 11.57049555549105 11.632958566377056 H 0.0 **** 0.06
14638 H 103.85592875378995 11.61236755576931 11.666738943107958 H 0.0 **** 0.06
14639 H 104.7049479026233 10.094685539721183 11.285471747867831 H 0.0 **** 0.06
14640 H 104.71440296191008 11.436488605847131 10.116313962426915 H 0.0 **** 0.06
14641 C 65.83991641572612 56.85977867975129 1.5040962278961558 C 0.0 **** -0.24
14642 H 65.46433134147551 56.857871088572594 2.5275136848033526 H 0.0 **** 0.06
14643 H 66.05447942651682 57.88379675153578 1.1988344508654052 H 0.0 **** 0.06
14644 H 65.08787971649176 56.4325751078169 0.8411731958586302 H 0.0 **** 0.06
14645 H 66.751314227654 56.26567854663605 1.4512280615802524 H 0.0 **** 0.06
14646 C 46.69560118969292 72.77912224623356 84.78024373946228 C 0.0 **** -0.24
14647 H 45.74498570737407 73.06977330040348 84.33399695414612 H 0.0 **** 0.06
14648 H 46.9332416719398 73.45559468471711 85.60221282527715 H 0.0 **** 0.06
14649 H 47.481185958983446 72.83303580543597 84.02651569651425 H 0.0 **** 0.06
14650 H 46.622735842703534 71.75915725045871 85.15736321532887 H 0.0 **** 0.06
14651 C 31.553504225311222 19.85472340261748 127.24705450289794 C 0.0 **** -0.24
14652 H 32.12900205542058 20.582348027032992 127.81756008839618 H 0.0 **** 0.06
14653 H 32.232425248054916 19.14456256485971 126.77505144277428 H 0.0 **** 0.06
14654 H 30.97472284155627 20.36976070553868 126.47975482880165 H 0.0 **** 0.06
14655 H 30.877052620842946 19.321779932202986 127.91547544802866 H 0.0 **** 0.06
14656 C 30.38866527322125 108.65681946736788 37.579022326659924 C 0.0 **** -0.24
14657 H 30.579846110459428 109.34625155212836 38.40156859641553 H 0.0 **** 0.06
14658 H 29.448569221594056 108.13378407757466 37.755656063946205 H 0.0 **** 0.06
14659 H 31.20151871563783 107.93191166730631 37.51754784085881 H 0.0 **** 0.06
14660 H 30.3260056394155 109.21336522611594 36.644991515086616 H 0.0 **** 0.06
14661 C 56.66206470848445 74.41156095019082 54.810534047716544 C 0.0 **** -0.24
14662 H 57.48055743747949 74.0991328965713 54.16248821750361 H 0.0 **** 0.06
14663 H 56.46844843704963 75.47477642618256 54.66419639109233 H 0.0 **** 0.06
14664 H 56.933631987001434 74.23152451409906 55.851421278182855 H 0.0 **** 0.06
14665 H 55.76613550182702 73.84173698177928 54.564966247483255 H 0.0 **** 0.06
14666 C 111.4253170747022 87.45549982503155 124.88421147529345 C 0.0 **** -0.24
14667 H 112.43497725108239 87.09082019785882 124.69300425894147 H 0.0 **** 0.06
14668 H 111.46884340865961 88.29420643295663 125.58006333612906 H 0.0 **** 0.06
14669 H 110.82583093885182 86.65473678763115 125.3159474381925 H 0.0 **** 0.06
14670 H 110.97521484493478 87.78310691877215 123.94728745480148 H 0.0 **** 0.06
14671 C 45.2757948480936 0.42537829230516877 50.12836067159323 C 0.0 **** -0.24
14672 H 45.622476690231906 -0.5203534159345793 49.71150540848373 H 0.0 **** 0.06
14673 H 45.87827289081838 0.6801670535153335 50.999089023387896 H 0.0 **** 0.06
14674 H 44.230404879487025 0.32967403420971664 50.42352099664578 H 0.0 **** 0.06
14675 H 45.37004871347273 1.209788379878546 49.377071040913634 H 0.0 **** 0.06
14676 C 38.35143183942431 58.33614892719956 34.573892537968675 C 0.0 **** -0.24
14677 H 38.85427384994559 59.2725380411016 34.33501947901033 H 0.0 **** 0.06
14678 H 37.69321427285857 58.05686143428983 33.75013755436731 H 0.0 **** 0.06
14679 H 37.76253199803572 58.461616780786585 35.48288367608433 H 0.0 **** 0.06
14680 H 39.09400812915624 57.55342083604626 34.727232772828984 H 0.0 **** 0.06
14681 C 81.14695629224366 80.443851728416 6.155582514574487 C 0.0 **** -0.24
14682 H 81.11643234282178 81.31320030412886 6.813319894202518 H 0.0 **** 0.06
14683 H 81.87205906183885 80.61534214721678 5.360597590773846 H 0.0 **** 0.06
14684 H 80.16111051514025 80.28281876093905 5.720367040529695 H 0.0 **** 0.06
14685 H 81.43739930214838 79.56480123286212 6.7308295408009435 H 0.0 **** 0.06
14686 C 117.28725730600641 117.30849243948563 22.4388721046829 C 0.0 **** -0.24
14687 H 117.71217173629077 118.26820623133491 22.143345007290577 H 0.0 **** 0.06
14688 H 117.28167666410056 116.63408150082498 21.58238753439349 H 0.0 **** 0.06
14689 H 116.26659817232556 117.45615211931187 22.792093881252868 H 0.0 **** 0.06
14690 H 117.88884596638806 116.87623032341494 23.238325416942985 H 0.0 **** 0.06
14691 C 119.97591971931787 13.478424726562622 122.19605954076826 C 0.0 **** -0.24
14692 H 118.93206785877092 13.344695674745282 122.4801051355858 H 0.0 **** 0.06
14693 H 120.48743098043302 14.0648266700438 122.96009756741768 H 0.0 **** 0.06
14694 H 120.02863744040094 14.000401774307704 121.2409193212585 H 0.0 **** 0.06
14695 H 120.45423295153374 12.502990892941312 122.10475032625507 H 0.0 **** 0.06
14696 C 118.698156283336 119.90458130437848 136.78065094537027 C 0.0 **** -0.24
14697 H 118.75819067051214 119.20581225920284 137.61552206854174 H 0.0 **** 0.06
14698 H 118.64161267159591 120.9234262457437 137.16416349737585 H 0.0 **** 0.06
14699 H 117.80754839981262 119.68787486157899 136.18949864101447 H 0.0 **** 0.06
14700 H 119.58410013975845 119.79931478744214 136.15542582666467 H 0.0 **** 0.06
14701 C 66.75148802115052 118.37018881509044 23.591353299774866 C 0.0 **** -0.24
14702 H 66.31806910608205 117.80158938003575 24.413442550840557 H 0.0 **** 0.06
14703 H 66.13770977774627 119.2491183739406 23.393972538614307 H 0.0 **** 0.06
14704 H 66.7903147847922 117.74588080613577 22.69909099435324 H 0.0 **** 0.06
14705 H 67.7598584159814 118.68416670024945 23.8589071152914 H 0.0 **** 0.06
14706 C 63.72217391297612 58.7118590491247 34.79651882467186 C 0.0 **** -0.24
14707 H 64.05855407460012 57.91129566000386 35.45566351918213 H 0.0 **** 0.06
14708 H 63.37141535229135 58.285582064481204 33.857027263661635 H 0.0 **** 0.06
14709 H 64.5494632539535 59.39400891909564 34.600692467404436 H 0.0 **** 0.06
14710 H 62.90741996837603 59.257124065065995 35.27419987965671 H 0.0 **** 0.06
14711 C 13.975050052687948 65.21881720313417 15.997438605818928 C 0.0 **** -0.24
14712 H 13.766589286784878 65.9412361599243 16.786409459976937 H 0.0 **** 0.06
14713 H 13.092721135106455 65.1056538528918 15.367127712397433 H 0.0 **** 0.06
14714 H 14.2287355558487 64.25723338409716 16.444502719444742 H 0.0 **** 0.06
14715 H 14.811042531732888 65.57170994231876 15.393570780795812 H 0.0 **** 0.06
14716 C 126.10339867236702 78.04633743880134 58.58281978813578 C 0.0 **** -0.24
14717 H 126.29657992398666 78.29378712512334 57.53874567985878 H 0.0 **** 0.06
14718 H 125.98415274905196 76.96732090187504 58.6841401475554 H 0.0 **** 0.06
14719 H 125.19077010311179 78.54500697385552 58.9108790837107 H 0.0 **** 0.06
14720 H 126.94005312360886 78.37929376442668 59.196157726614146 H 0.0 **** 0.06
14721 C 106.28665629955256 78.64317359686743 8.790857892950655 C 0.0 **** -0.24
14722 H 105.2164181676449 78.66260289463658 8.585458527344468 H 0.0 **** 0.06
14723 H 106.60705110513592 77.61262046098894 8.950180069706615 H 0.0 **** 0.06
14724 H 106.49570807003116 79.23091643523405 9.684962918458304 H 0.0 **** 0.06
14725 H 106.82660166000116 79.06549792887019 7.943239323113687 H 0.0 **** 0.06
14726 C 97.2928018698021 54.2473323223863 10.336349376449817 C 0.0 **** -0.24
14727 H 97.41109828675172 53.27236240075824 10.809391321745466 H 0.0 **** 0.06
14728 H 98.18924675343993 54.48422560224763 9.763415522532682 H 0.0 **** 0.06
14729 H 97.14008253966506 55.00688143122751 11.103144671451247 H 0.0 **** 0.06
14730 H 96.43041806081993 54.22419374181597 9.669751404109576 H 0.0 **** 0.06
14731 C 41.40637479443569 93.57639276980518 90.7109210571233 C 0.0 **** -0.24
14732 H 41.8909980383832 92.75720942278414 91.24226936489532 H 0.0 **** 0.06
14733 H 42.093003548654906 94.41908476596677 90.64089862716474 H 0.0 **** 0.06
14734 H 40.509963869111346 93.88090111081004 91.25254200936956 H 0.0 **** 0.06
14735 H 41.130254218266 93.24689039096751 89.70944282154412 H 0.0 **** 0.06
14736 C 107.7886052998274 136.55447965942767 126.86456638916725 C 0.0 **** -0.24
14737 H 107.47137184143256 136.03286772315687 125.96159020912737 H 0.0 **** 0.06
14738 H 106.94898907815768 137.1153529146519 127.27391441624894 H 0.0 **** 0.06
14739 H 108.59992301841532 137.23932274356793 126.62143578504671 H 0.0 **** 0.06
14740 H 108.13472345130046 135.82800544685568 127.59989659624809 H 0.0 **** 0.06
14741 C 63.5060884207338 25.643625134274018 129.96266876147698 C 0.0 **** -0.24
14742 H 64.10525642589899 26.483571398714673 129.6107439849034 H 0.0 **** 0.06
14743 H 62.47655533970212 25.9702938973479 130.1132385880266 H 0.0 **** 0.06
14744 H 63.91389814211901 25.27781533663625 130.90583129153669 H 0.0 **** 0.06
14745 H 63.5307573597223 24.84434754294037 129.22195637630273 H 0.0 **** 0.06
14746 C 92.76524200050632 48.26308626043877 97.9502042961173 C 0.0 **** -0.24
14747 H 92.74878497081264 48.14012766759885 96.86753796379429 H 0.0 **** 0.06
14748 H 93.09008415543944 49.274176445842755 98.19575932897584 H 0.0 **** 0.06
14749 H 93.45584769001374 47.54254818053985 98.38716844803747 H 0.0 **** 0.06
14750 H 91.76500058507942 48.095070266378514 98.34984390045952 H 0.0 **** 0.06
14751 C 29.8292233464217 51.08610742933911 82.93951788460083 C 0.0 **** -0.24
14752 H 30.830775530382347 51.16863925679894 83.36363327033507 H 0.0 **** 0.06
14753 H 29.38491948603702 50.13787085878454 83.24272996549757 H 0.0 **** 0.06
14754 H 29.890304115195804 51.12743479121616 81.85188041549156 H 0.0 **** 0.06
14755 H 29.212848471582788 51.908900449284374 83.3017439499024 H 0.0 **** 0.06
14756 C 66.2167157369852 51.33901260209488 134.98186036143704 C 0.0 **** -0.24
14757 H 65.14279204719476 51.39168902252618 134.80313106395454 H 0.0 **** 0.06
14758 H 66.68807926633778 50.75855976875965 134.18822251359333 H 0.0 **** 0.06
14759 H 66.40226714067857 50.859534401030416 135.9428730473867 H 0.0 **** 0.06
14760 H 66.63272215237276 52.346895453531246 134.99243975811882 H 0.0 **** 0.06
14761 C 57.946098930006656 34.497648932188326 111.4154393832944 C 0.0 **** -0.24
14762 H 57.06923555750899 34.4529799843624 112.06110211048585 H 0.0 **** 0.06
14763 H 57.634058350330974 34.71712269961296 110.3939174561761 H 0.0 **** 0.06
14764 H 58.464321914340246 33.53900951810439 111.43953243560972 H 0.0 **** 0.06
14765 H 58.616779897846186 35.28148352667364 111.76720553090612 H 0.0 **** 0.06
14766 C 13.139480697606132 123.80657946204312 21.169382903478663 C 0.0 **** -0.24
14767 H 13.373960848606373 124.70726121655866 21.7352763747769 H 0.0 **** 0.06
14768 H 13.071209367658184 124.05078080561327 20.10906888753378 H 0.0 **** 0.06
14769 H 12.1888229907089 123.39921263852997 21.511584886092834 H 0.0 **** 0.06
14770 H 13.9265249961515 123.06755853656927 21.321584861350942 H 0.0 **** 0.06
14771 C 88.79147002415515 67.27148436323667 80.17525302639115 C 0.0 **** -0.24
14772 H 89.3065727858084 66.33758261519793 80.39989880448346 H 0.0 **** 0.06
14773 H 87.77138850056855 67.22396275687176 80.55685813640224 H 0.0 **** 0.06
14774 H 88.76892508490863 67.42352290344705 79.09619275704688 H 0.0 **** 0.06
14775 H 89.31818046112234 68.09936677306142 80.64777688797625 H 0.0 **** 0.06
14776 C 137.03996069578545 22.923836871482052 1.725010082495288 C 0.0 **** -0.24
14777 H 136.38748172885437 22.445672106563897 2.4558142512243535 H 0.0 **** 0.06
14778 H 136.5197451333765 23.003247305888962 0.7704003096710039 H 0.0 **** 0.06
14779 H 137.94235531992092 22.326282991413322 1.5992431434435161 H 0.0 **** 0.06
14780 H 137.30887742371675 23.92006348540354 2.077243561518344 H 0.0 **** 0.06
14781 C 133.25542142713536 79.37257325543091 77.15408778024636 C 0.0 **** -0.24
14782 H 132.55742188246174 78.53788525439785 77.09010626950034 H 0.0 **** 0.06
14783 H 132.73248309538184 80.30071341227861 76.92118552408492 H 0.0 **** 0.06
14784 H 134.0658764451022 79.22235868808009 76.441137367659 H 0.0 **** 0.06
14785 H 133.66455648290474 79.42818160791734 78.16223321651196 H 0.0 **** 0.06
14786 C 46.80784952629659 5.59621803703773 58.44075562049251 C 0.0 **** -0.24
14787 H 46.16542814849764 4.76279461430525 58.72304657321487 H 0.0 **** 0.06
14788 H 47.572614699466 5.739895666634045 59.204412649090145 H 0.0 **** 0.06
14789 H 46.20801121910611 6.503096326741893 58.3519866621199 H 0.0 **** 0.06
14790 H 47.28330291669057 5.3803359232866725 57.48409683231269 H 0.0 **** 0.06
14791 C 88.63100822260537 137.02197587109094 56.174492634237424 C 0.0 **** -0.24
14792 H 88.98930408783536 138.04195188489894 56.03619927047876 H 0.0 **** 0.06
14793 H 89.44255788288291 136.4007302385396 56.55331458853192 H 0.0 **** 0.06
14794 H 88.28378418636939 136.62632564042792 55.21994696595516 H 0.0 **** 0.06
14795 H 87.8074713269537 137.02074271357696 56.88937624499209 H 0.0 **** 0.06
14796 C 12.127826894814206 92.99522414391015 31.81184815962402 C 0.0 **** -0.24
14797 H 11.750570196416902 92.10883131211452 31.301925430155634 H 0.0 **** 0.06
14798 H 11.496688074943052 93.21487939479388 32.67367846765113 H 0.0 **** 0.06
14799 H 12.11487337238475 93.84211138875446 31.125615493663446 H 0.0 **** 0.06
14800 H 13.149503210690767 92.81413388692607 32.146263922354784 H 0.0 **** 0.06
14801 C 29.030439662605545 49.23778021647496 12.587677866575149 C 0.0 **** -0.24
14802 H 29.939656635151778 49.47321033720857 13.141808957686408 H 0.0 **** 0.06
14803 H 28.680636813552532 48.244073204137806 12.869311405132606 H 0.0 **** 0.06
14804 H 29.24059563170912 49.25996710882961 11.518639867068998 H 0.0 **** 0.06
14805 H 28.262162379821632 49.97407390947356 12.822764350688317 H 0.0 **** 0.06
14806 C 136.64122418860205 28.571506435338854 2.4120013044376947 C 0.0 **** -0.24
14807 H 137.70261403931443 28.38380774962279 2.5745031626099433 H 0.0 **** 0.06
14808 H 136.09441528673204 27.62971769605796 2.464059769965445 H 0.0 **** 0.06
14809 H 136.49789676049522 29.021572662387747 1.4299556464899013 H 0.0 **** 0.06
14810 H 136.2710851864892 29.250454117252893 3.1807250933053126 H 0.0 **** 0.06
14811 C 63.678529378628696 118.40284359716063 85.87520274549563 C 0.0 **** -0.24
14812 H 64.09557200452286 117.76197190148596 85.09875445204453 H 0.0 **** 0.06
14813 H 64.10054095306924 119.40405697844069 85.78465945939969 H 0.0 **** 0.06
14814 H 63.92460211853626 117.9915224590329 86.8544658445785 H 0.0 **** 0.06
14815 H 62.595526722200646 118.45203287951065 85.76346327840433 H 0.0 **** 0.06
14816 C 15.535677583775133 67.30087047366868 134.38989374656938 C 0.0 **** -0.24
14817 H 14.597971590401976 67.7534641580508 134.0681990677378 H 0.0 **** 0.06
14818 H 15.839582074024186 66.54249814698221 133.66759630946842 H 0.0 **** 0.06
14819 H 15.398969325602444 66.83820505589497 135.36760978501025 H 0.0 **** 0.06
14820 H 16.305473219891 68.06991778793224 134.45510859726784 H 0.0 **** 0.06
14821 C 69.89258530003426 99.66854725791126 119.91635439422285 C 0.0 **** -0.24
14822 H 69.1355946758957 98.97618124744139 120.28447333664383 H 0.0 **** 0.06
14823 H 70.77784797088032 99.6081917027779 120.54948966935717 H 0.0 **** 0.06
14824 H 69.49704478893617 100.6841636644628 119.93939994143656 H 0.0 **** 0.06
14825 H 70.158509414239 99.40456290186762 118.89213090837995 H 0.0 **** 0.06
14826 C 114.45189421956124 51.29829287497097 68.326682566621 C 0.0 **** -0.24
14827 H 115.37948964527601 51.81060678024784 68.58076369646798 H 0.0 **** 0.06
14828 H 114.6726607327189 50.44074576203201 67.69024387554026 H 0.0 **** 0.06
14829 H 113.7918266693743 51.98449074350523 67.79552778398096 H 0.0 **** 0.06
14830 H 113.96275170467507 50.9574193492315 69.23868742405223 H 0.0 **** 0.06
14831 C 4.50363580342372 110.80168362663588 112.83437125361218 C 0.0 **** -0.24
14832 H 3.506571976934538 110.69314127920359 113.26033288593294 H 0.0 **** 0.06
14833 H 4.582290433266678 111.76790958456482 112.33472240620472 H 0.0 **** 0.06
14834 H 4.6778022472061025 110.00334191693645 112.11187163437506 H 0.0 **** 0.06
14835 H 5.247164528704616 110.74052881963834 113.6282768705332 H 0.0 **** 0.06
14836 C 57.297733288416666 130.14439131655107 134.0845033150152 C 0.0 **** -0.24
14837 H 57.71501118646124 130.9450252233197 134.6950256768943 H 0.0 **** 0.06
14838 H 57.971102507871436 129.93332335845741 133.25276756970243 H 0.0 **** 0.06
14839 H 56.326455145565944 130.4512428568831 133.69677924760484 H 0.0 **** 0.06
14840 H 57.1807558728821 129.2481968119585 134.69296014019025 H 0.0 **** 0.06
14841 C 59.35264996366803 114.50175164231678 46.77895879668142 C 0.0 **** -0.24
14842 H 59.230783596891854 113.533998737449 46.291709375576545 H 0.0 **** 0.06
14843 H 59.32541949329203 114.3697398436613 47.86027485426929 H 0.0 **** 0.06
14844 H 58.54468252868293 115.16634549025503 46.47285635071316 H 0.0 **** 0.06
14845 H 60.30907917445455 114.93644834705651 46.48890364710704 H 0.0 **** 0.06
14846 C 47.02456948416389 128.32863644912845 93.25044663076514 C 0.0 **** -0.24
14847 H 47.670449912189866 127.5193902044526 93.58944220157525 H 0.0 **** 0.06
14848 H 47.59120774235612 128.99986519673695 92.60437453118487 H 0.0 **** 0.06
14849 H 46.65205216787484 128.88163044437977 94.11256294476087 H 0.0 **** 0.06
14850 H 46.1835783530118 127.91379653292654 92.69536484041765 H 0.0 **** 0.06
14851 C 73.05366543846213 65.62994374536578 118.20113711263707 C 0.0 **** -0.24
14852 H 72.76243614450465 65.15605954820666 117.2640782574415 H 0.0 **** 0.06
14853 H 72.17838078837309 66.0864038881013 118.66425914952933 H 0.0 **** 0.06
14854 H 73.80231796733392 66.39780080326452 118.0028341826154 H 0.0 **** 0.06
14855 H 73.47172996018347 64.87967395059547 118.87198682378906 H 0.0 **** 0.06
14856 C 135.09813775751547 29.62630975204747 7.140150991254121 C 0.0 **** -0.24
14857 H 134.68697406249765 30.430209238925848 6.529274481436843 H 0.0 **** 0.06
14858 H 135.92954070954363 30.008471587092302 7.731408521987035 H 0.0 **** 0.06
14859 H 135.45005994442175 28.82363932821349 6.492454298747006 H 0.0 **** 0.06
14860 H 134.32328745725118 29.242928856997892 7.804864625118736 H 0.0 **** 0.06
14861 C 11.777090852936063 57.62460940158263 110.76341139198976 C 0.0 **** -0.24
14862 H 12.53762520521958 57.66505029643176 109.98321902802377 H 0.0 **** 0.06
14863 H 10.78708934112425 57.654911996622076 110.30734137130551 H 0.0 **** 0.06
14864 H 11.895830849897521 58.477727815722176 111.43124807695665 H 0.0 **** 0.06
14865 H 11.888237909401976 56.700962084293735 111.3309552254749 H 0.0 **** 0.06
14866 C 99.897210223461 42.57222276230817 8.614291671399712 C 0.0 **** -0.24
14867 H 99.37549328549395 42.575743896683804 7.65703772379868 H 0.0 **** 0.06
14868 H 100.54811084500795 43.44553932584802 8.675428523891185 H 0.0 **** 0.06
14869 H 100.49623028456239 41.6656827338208 8.697964747205617 H 0.0 **** 0.06
14870 H 99.1698875596669 42.60303824577383 9.42428927334771 H 0.0 **** 0.06
14871 C 133.0501031375888 40.08357000613711 98.80256315777277 C 0.0 **** -0.24
14872 H 132.25958206526542 39.34551024645498 98.94093338442664 H 0.0 **** 0.06
14873 H 133.25680708378172 40.19873594025046 97.73813495936804 H 0.0 **** 0.06
14874 H 133.95292439148034 39.74932126420475 99.31464095163972 H 0.0 **** 0.06
14875 H 132.7301847930206 41.039273909594186 99.21685089449309 H 0.0 **** 0.06
14876 C 17.26026600775549 30.090127202549525 71.65340017851676 C 0.0 **** -0.24
14877 H 18.213076889499803 30.104834072288327 71.12460893982514 H 0.0 **** 0.06
14878 H 16.530860150503713 30.687374116366755 71.10542999395928 H 0.0 **** 0.06
14879 H 17.393021440348377 30.505211508292234 72.65276953057992 H 0.0 **** 0.06
14880 H 16.903974755671243 29.062607762792027 71.73165899115799 H 0.0 **** 0.06
14881 C 33.01063974938751 92.2433515994481 15.12027678749132 C 0.0 **** -0.24
14882 H 32.77304326323463 91.18006100163142 15.12011269657421 H 0.0 **** 0.06
14883 H 33.908382604205144 92.41479048784889 14.52562430488706 H 0.0 **** 0.06
14884 H 33.18293664378862 92.57638115828401 16.14398044400673 H 0.0 **** 0.06
14885 H 32.17819648632148 92.80217375002823 14.691389704497396 H 0.0 **** 0.06
14886 C 134.3307591770973 25.33561115199717 73.64095753198808 C 0.0 **** -0.24
14887 H 135.06491845362768 25.168037785189767 72.85295855919207 H 0.0 **** 0.06
14888 H 134.08757367358876 24.386287849380892 74.1180593389119 H 0.0 **** 0.06
14889 H 133.42792694589957 25.768698138144657 73.21035018630698 H 0.0 **** 0.06
14890 H 134.7442737190566 26.01990548487032 74.38261251051392 H 0.0 **** 0.06
14891 C 108.36180679128282 37.610784594048646 117.73879034705183 C 0.0 **** -0.24
14892 H 108.3137276156353 36.625278547826625 118.202322763594 H 0.0 **** 0.06
14893 H 107.51076520191843 38.20749370379627 118.06639146529847 H 0.0 **** 0.06
14894 H 108.33657048967123 37.504338751321285 116.65459274359 H 0.0 **** 0.06
14895 H 109.28736818140452 38.105438453905464 118.03364411141123 H 0.0 **** 0.06
14896 C 52.804445767646484 81.09994977585087 81.53857087590518 C 0.0 **** -0.24
14897 H 52.68135653126325 80.50067303741397 82.44026342708091 H 0.0 **** 0.06
14898 H 52.35678501492981 82.08255501564999 81.69173717093788 H 0.0 **** 0.06
14899 H 52.31252488454601 80.60258884699203 80.70285441804607 H 0.0 **** 0.06
14900 H 53.86615029423035 81.21376557558753 81.31956739367412 H 0.0 **** 0.06
14901 C 32.99595774559009 36.673337244821084 85.15780445676654 C 0.0 **** -0.24
14902 H 32.569530895510525 37.59105060316625 84.75170294869558 H 0.0 **** 0.06
14903 H 33.87190724319163 36.91504106042214 85.75954758398062 H 0.0 **** 0.06
14904 H 33.28675703128624 36.01481864771927 84.33990161924592 H 0.0 **** 0.06
14905 H 32.25386296685923 36.173631539219 85.78072469617584 H 0.0 **** 0.06
14906 C 108.67499690719814 92.66714129023838 64.30139523657373 C 0.0 **** -0.24
14907 H 109.01425929717517 92.65569401697509 65.33759506833998 H 0.0 **** 0.06
14908 H 109.27024757962877 93.38270466928078 63.733756468541046 H 0.0 **** 0.06
14909 H 107.62531523788823 92.95774741826357 64.26653113821894 H 0.0 **** 0.06
14910 H 108.79228319716671 91.6728434307473 63.87000820373491 H 0.0 **** 0.06
14911 C 21.154639994560256 42.32337767608049 39.900715794143935 C 0.0 **** -0.24
14912 H 21.35484471407591 42.98194372626285 40.74596362515305 H 0.0 **** 0.06
14913 H 21.50094709795806 41.3159844851334 40.13509472878002 H 0.0 **** 0.06
14914 H 21.68054418237682 42.69290489048808 39.02033150900783 H 0.0 **** 0.06
14915 H 20.082823558946757 42.302242790754676 39.70267811285987 H 0.0 **** 0.06
14916 C 116.0148446510297 135.97321094526197 55.25433864588729 C 0.0 **** -0.24
14917 H 116.77637138769074 135.7377698706089 54.509881353843696 H 0.0 **** 0.06
14918 H 116.40693232285312 136.7121145136588 55.95293926134417 H 0.0 **** 0.06
14919 H 115.74508249758472 135.06663902586757 55.79620653100301 H 0.0 **** 0.06
14920 H 115.13284681813062 136.3761962049653 54.755768889956414 H 0.0 **** 0.06
14921 C 136.38036003375345 44.169851007132934 81.76849148676314 C 0.0 **** -0.24
14922 H 136.7365080681659 44.48592626385971 80.78804461530831 H 0.0 **** 0.06
14923 H 136.41755647094516 43.08318066799916 81.83552131075055 H 0.0 **** 0.06
14924 H 135.35390236817688 44.50855771402155 81.90790265586497 H 0.0 **** 0.06
14925 H 137.0143212093762 44.60441189595625 82.54143011779342 H 0.0 **** 0.06
14926 C 16.505525890601348 83.73616177224056 75.54743848475877 C 0.0 **** -0.24
14927 H 15.867909535327271 84.40685795424946 76.1219930970943 H 0.0 **** 0.06
14928 H 15.90599736608334 83.21618642505729 74.80023352662361 H 0.0 **** 0.06
14929 H 16.963785159159897 83.00869000923555 76.21728050308197 H 0.0 **** 0.06
14930 H 17.285514736034997 84.31358156970077 75.0508261056647 H 0.0 **** 0.06
14931 C 61.53678175061866 35.96698790932399 51.74768261669843 C 0.0 **** -0.24
14932 H 62.481092461509064 36.22770948550818 51.2692930015979 H 0.0 **** 0.06
14933 H 61.57095129325096 36.25459063996753 52.79903328387637 H 0.0 **** 0.06
14934 H 61.37447120086037 34.89220898200521 51.669346272446035 H 0.0 **** 0.06
14935 H 60.72114366486768 36.49475162410744 51.253119122545925 H 0.0 **** 0.06
14936 C 27.144215236965493 108.75548124348273 111.5248595094572 C 0.0 **** -0.24
14937 H 27.687875641137907 108.96070287889722 110.60301436066982 H 0.0 **** 0.06
14938 H 26.503670277901335 109.60417610890644 111.76574592679378 H 0.0 **** 0.06
14939 H 27.854905659625615 108.59423563563615 112.33681526148223 H 0.0 **** 0.06
14940 H 26.532631048756684 107.86322789292029 111.39607388249772 H 0.0 **** 0.06
14941 C 79.99022802004392 77.56688233332488 127.44916847030257 C 0.0 **** -0.24
14942 H 80.06675816317059 77.55012539718123 128.53672143063008 H 0.0 **** 0.06
14943 H 80.45832665969854 78.47336150496238 127.06612120036897 H 0.0 **** 0.06
14944 H 78.94019083928418 77.54854032513504 127.15826380285537 H 0.0 **** 0.06
14945 H 80.49684184170154 76.69372514302438 127.03674627488431 H 0.0 **** 0.06
14946 C 8.814726288336288 77.51266085614262 103.12228830787035 C 0.0 **** -0.24
14947 H 9.55761034287606 76.71989827997153 103.02920832405783 H 0.0 **** 0.06
14948 H 9.086990972941493 78.17061396128443 103.94839349405927 H 0.0 **** 0.06
14949 H 7.836448378393044 77.07188509556187 103.31576479581628 H 0.0 **** 0.06
14950 H 8.777949911805138 78.0869289132563 102.1969074516476 H 0.0 **** 0.06
14951 C 61.61037478151371 71.29070163134776 74.78663750392757 C 0.0 **** -0.24
14952 H 61.12958994672667 70.37476682744045 75.1299470326451 H 0.0 **** 0.06
14953 H 61.17714360283861 72.14502589213373 75.30699303201104 H 0.0 **** 0.06
14954 H 61.45651392306587 71.40178317353195 73.71321876203335 H 0.0 **** 0.06
14955 H 62.67912366255314 71.2401172956661 74.99640439298643 H 0.0 **** 0.06
14956 C 8.745945530820364 108.04519975270934 132.12210928730272 C 0.0 **** -0.24
14957 H 9.72254213783296 108.48888117625637 131.92824870123133 H 0.0 **** 0.06
14958 H 8.012126550462256 108.83770477860078 132.2759359685302 H 0.0 **** 0.06
14959 H 8.801598497764274 107.42232364678183 133.0147778471549 H 0.0 **** 0.06
14960 H 8.44815075414536 107.43461852437541 131.2705461192557 H 0.0 **** 0.06
14961 C 46.828267183574766 70.58927825632462 111.81589443140135 C 0.0 **** -0.24
14962 H 47.851470936342636 70.21641063475688 111.783508801496 H 0.0 **** 0.06
14963 H 46.238280859337564 69.97359243555658 112.49395572241278 H 0.0 **** 0.06
14964 H 46.39501463380654 70.54678197843985 110.81594972462327 H 0.0 **** 0.06
14965 H 46.82872444871985 71.62152148534693 112.16744359685896 H 0.0 **** 0.06
14966 C 35.49333579050318 60.88814124613681 122.64442346487479 C 0.0 **** -0.24
14967 H 35.294181299567086 61.50873780940472 121.7708981678708 H 0.0 **** 0.06
14968 H 35.207475963660926 59.857838954642816 122.43129806685936 H 0.0 **** 0.06
14969 H 34.916534567322316 61.258279970198956 123.49189601718105 H 0.0 **** 0.06
14970 H 36.555693729604656 60.92899411344601 122.88337258156442 H 0.0 **** 0.06
14971 C 66.96856988401068 115.4756616658729 101.00598157185593 C 0.0 **** -0.24
14972 H 67.39782644509037 114.47486935987035 100.96044457138713 H 0.0 **** 0.06
14973 H 65.88849554250238 115.41505135111558 100.87105239022294 H 0.0 **** 0.06
14974 H 67.39982100164315 116.09224688558871 100.21769915017066 H 0.0 **** 0.06
14975 H 67.18884333533789 115.92040276406894 101.9770742972112 H 0.0 **** 0.06
14976 C 128.99948599351166 112.85870014157419 61.97907752794693 C 0.0 **** -0.24
14977 H 128.28950712914258 113.47586621789875 61.428167258406816 H 0.0 **** 0.06
14978 H 128.4631947549368 112.24940153279266 62.70679381161774 H 0.0 **** 0.06
14979 H 129.71261569639444 113.50038816230156 62.49743128238751 H 0.0 **** 0.06
14980 H 129.53301699057732 112.20994811825128 61.28436711936993 H 0.0 **** 0.06
14981 C 68.32905482370413 133.36535367917807 100.57678137509171 C 0.0 **** -0.24
14982 H 67.42988044481426 133.48758920880385 99.9721748788263 H 0.0 **** 0.06
14983 H 68.05295104448757 133.30991323407434 101.63035917432255 H 0.0 **** 0.06
14984 H 68.99193937661128 134.21528257285965 100.41857281701628 H 0.0 **** 0.06
14985 H 68.83976272951627 132.44690963585182 100.28646592387334 H 0.0 **** 0.06
14986 C 103.79737446881916 122.22750041317761 30.97257407285357 C 0.0 **** -0.24
14987 H 103.4896938806886 122.40557424932398 32.00361359075967 H 0.0 **** 0.06
14988 H 104.88362574932637 122.15919987938821 30.92504305952655 H 0.0 **** 0.06
14989 H 103.4569345958711 123.05179470604327 30.345139042966736 H 0.0 **** 0.06
14990 H 103.35745132006622 121.29461683477395 30.618821400442847 H 0.0 **** 0.06
14991 C 55.16116217545526 52.261228387538154 129.07101446563553 C 0.0 **** -0.24
14992 H 54.13339099223441 51.90248096001028 129.01482066515766 H 0.0 **** 0.06
14993 H 55.82077549290419 51.433680181187356 129.33228119396912 H 0.0 **** 0.06
14994 H 55.23331368290145 53.03822430952226 129.83173552944115 H 0.0 **** 0.06
14995 H 55.456164941463115 52.670292917336496 128.10382848587093 H 0.0 **** 0.06
14996 C 88.0317903901598 51.32972649152737 31.638631785267677 C 0.0 **** -0.24
14997 H 88.68287980976936 50.45650687457049 31.658305892875546 H 0.0 **** 0.06
14998 H 88.15975504509773 51.856911700549944 30.692448963649525 H 0.0 **** 0.06
14999 H 88.2898478810525 51.99459203393204 32.463104475735946 H 0.0 **** 0.06
15000 H 86.99407886302346 51.01169537045308 31.74067622760481 H 0.0 **** 0.06
15001 C 52.06857796949504 94.62139545573496 48.76261977694281 C 0.0 **** -0.24
15002 H 52.83285735649196 94.83984988363224 48.015920504300055 H 0.0 **** 0.06
15003 H 51.82805727525397 93.55894026992365 48.73542045476023 H 0.0 **** 0.06
15004 H 51.17240273222552 95.20350623597213 48.544800799523685 H 0.0 **** 0.06
15005 H 52.440956877195106 94.88519706607974 49.75202549687074 H 0.0 **** 0.06
15006 C 102.17610722540297 130.26166169251738 98.74517566067567 C 0.0 **** -0.24
15007 H 102.71387105029294 131.177714044184 98.98875562617899 H 0.0 **** 0.06
15008 H 102.8890307014577 129.48674308202135 98.45919237540686 H 0.0 **** 0.06
15009 H 101.49392869752191 130.45033655460304 97.91599634775375 H 0.0 **** 0.06
15010 H 101.60886629556357 129.93018076061605 99.6148619122742 H 0.0 **** 0.06
15011 C 43.364976915218875 41.083713324335584 135.85367409395747 C 0.0 **** -0.24
15012 H 44.391027488518404 40.84231317348785 135.57566822871297 H 0.0 **** 0.06
15013 H 43.34800142539578 41.47982054531494 136.86879031543936 H 0.0 **** 0.06
15014 H 42.754442641755475 40.18286239112018 135.80451624666006 H 0.0 **** 0.06
15015 H 42.96854403466858 41.82983694397087 135.16497562569154 H 0.0 **** 0.06
15016 C 111.05241650408027 55.34663647117556 99.54239923869983 C 0.0 **** -0.24
15017 H 111.14296642300309 55.51040049584044 98.46908378261143 H 0.0 **** 0.06
15018 H 110.53031636749486 54.40661267677784 99.72379059212385 H 0.0 **** 0.06
15019 H 110.49010266436073 56.16687608655265 99.98935137390873 H 0.0 **** 0.06
15020 H 112.0461052418172 55.3023088875924 99.98873077742638 H 0.0 **** 0.06
15021 C 72.382767199818 110.72129317752501 41.38749880754003 C 0.0 **** -0.24
15022 H 72.5727477416355 109.7729847916562 41.89028073248326 H 0.0 **** 0.06
15023 H 72.67207094887195 110.64118058813992 40.3395138893068 H 0.0 **** 0.06
15024 H 72.96569506404629 111.50815283751152 41.865786403393656 H 0.0 **** 0.06
15025 H 71.32250939488615 110.961788325394 41.45543600758873 H 0.0 **** 0.06
15026 C 121.07261918744922 129.61146677679903 57.906760782587824 C 0.0 **** -0.24
15027 H 120.34081691140874 129.55761571422343 57.100714533501446 H 0.0 **** 0.06
15028 H 121.48851734623959 130.61868275844355 57.95271529884151 H 0.0 **** 0.06
15029 H 121.87266349318072 128.89600907258767 57.71890337847877 H 0.0 **** 0.06
15030 H 120.58737249473211 129.37526434452724 58.85334257071089 H 0.0 **** 0.06
15031 C 22.14761506018499 85.70893936594965 50.94878424626188 C 0.0 **** -0.24
15032 H 22.717185337690864 84.81904545576691 51.21445045360707 H 0.0 **** 0.06
15033 H 22.58702839092291 86.580018045712 51.43668792953616 H 0.0 **** 0.06
15034 H 21.11501436498378 85.59076988205925 51.27665437573279 H 0.0 **** 0.06
15035 H 22.17325143436551 85.84677304986343 49.86779362739125 H 0.0 **** 0.06
15036 C 71.08177419546101 41.89957897414547 78.24639818114542 C 0.0 **** -0.24
15037 H 70.61175786767336 41.05443409014555 77.74491959542232 H 0.0 **** 0.06
15038 H 72.03088441722014 42.127835691951645 77.75980513466862 H 0.0 **** 0.06
15039 H 71.25990313432317 41.64971535309729 79.29214542474051 H 0.0 **** 0.06
15040 H 70.42461269987672 42.76752494613578 78.18658471133375 H 0.0 **** 0.06
15041 C 27.432759323776907 30.128671235014302 11.70298720234456 C 0.0 **** -0.24
15042 H 26.383087505016313 30.034233425085546 11.981425062505195 H 0.0 **** 0.06
15043 H 27.646753869613057 31.16459385833867 11.441201631770952 H 0.0 **** 0.06
15044 H 27.639957133054764 29.486730551510206 10.846120619252332 H 0.0 **** 0.06
15045 H 28.0597961730033 29.827488728494508 12.54271691624794 H 0.0 **** 0.06
15046 C 57.081223426003305 7.420931183432913 37.30819628605958 C 0.0 **** -0.24
15047 H 57.20661125754242 7.013407756488988 38.311460768096204 H 0.0 **** 0.06
15048 H 56.029615031908065 7.368634649358597 37.024094232757314 H 0.0 **** 0.06
15049 H 57.676622617368025 6.8417316673856305 36.60288518130012 H 0.0 **** 0.06
15050 H 57.410342671447125 8.45969406712274 37.29415243463506 H 0.0 **** 0.06
15051 C 106.98986670028555 108.9372373878402 0.4860683999491471 C 0.0 **** -0.24
15052 H 107.166166933738 110.0127605092477 0.46120233948738587 H 0.0 **** 0.06
15053 H 106.24931862411302 108.67319781066375 -0.2693438991504422 H 0.0 **** 0.06
15054 H 106.62034441118618 108.65247787644337 1.471469529316039 H 0.0 **** 0.06
15055 H 107.92254861094992 108.41141465301723 0.2810050380964526 H 0.0 **** 0.06
15056 C 113.86081413740041 11.39643851058105 49.003474386039755 C 0.0 **** -0.24
15057 H 114.30278805574298 11.121760059432745 49.96172482770923 H 0.0 **** 0.06
15058 H 113.26632547077679 12.30253686252064 49.12409819976831 H 0.0 **** 0.06
15059 H 113.22211107620308 10.585458960457458 48.65251617894606 H 0.0 **** 0.06
15060 H 114.65319315456591 11.575985944505533 48.2763655181264 H 0.0 **** 0.06
15061 C 34.63152068545393 47.52768559347125 35.30329556418398 C 0.0 **** -0.24
15062 H 34.135065245843926 48.42905478835587 34.944372707604174 H 0.0 **** 0.06
15063 H 35.45720366139423 47.80409306770838 35.95929374337568 H 0.0 **** 0.06
15064 H 35.01497260762625 46.96178196213555 34.454579626996946 H 0.0 **** 0.06
15065 H 33.91820533306561 46.91526881748888 35.855483932431795 H 0.0 **** 0.06
15066 C 10.559347543989276 80.15925761154534 121.68369034334225 C 0.0 **** -0.24
15067 H 10.804390664957339 80.79908562714749 120.83575811983923 H 0.0 **** 0.06
15068 H 9.743882882869684 79.49057475806394 121.40914041761583 H 0.0 **** 0.06
15069 H 10.253467569988231 80.77770634311557 122.52815095139817 H 0.0 **** 0.06
15070 H 11.43523238761658 79.57248630672076 121.96078463326364 H 0.0 **** 0.06
15071 C 62.55907343136954 72.68727849725602 70.60102687703133 C 0.0 **** -0.24
15072 H 62.94881690563608 72.75316246193695 71.61651856076222 H 0.0 **** 0.06
15073 H 62.221098456493905 71.66920753169313 70.40645681723439 H 0.0 **** 0.06
15074 H 63.34521703026434 72.95091116335539 69.89219600336897 H 0.0 **** 0.06
15075 H 61.722099715878244 73.37726135020529 70.48718140408711 H 0.0 **** 0.06
15076 C 71.55487874026056 54.008033623074056 60.62344572159783 C 0.0 **** -0.24
15077 H 72.104107990393 54.09405657920608 61.56154933500338 H 0.0 **** 0.06
15078 H 70.87568526570465 54.853961321669274 60.52149682698062 H 0.0 **** 0.06
15079 H 70.9832760865774 53.07999875983633 60.62178586001809 H 0.0 **** 0.06
15080 H 72.25852101131659 54.00261476387706 59.7905109761449 H 0.0 **** 0.06
15081 C 122.66822210548544 110.76593495989644 33.49591709901198 C 0.0 **** -0.24
15082 H 122.35661042644179 110.66746865056675 34.53615151755929 H 0.0 **** 0.06
15083 H 123.62712399192401 110.26673831516203 33.35623192250554 H 0.0 **** 0.06
15084 H 122.76812139454579 111.8215380263025 33.24481288889854 H 0.0 **** 0.06
15085 H 121.92143967915487 110.30741919868518 32.84881795718688 H 0.0 **** 0.06
15086 C 7.620070047538434 124.39093845590214 113.4490448756149 C 0.0 **** -0.24
15087 H 8.578889536519029 123.88655812657102 113.567394848303 H 0.0 **** 0.06
15088 H 7.0122670455413925 123.85009826494064 112.72234304563298 H 0.0 **** 0.06
15089 H 7.786118379951773 125.40950480024603 113.0990583197908 H 0.0 **** 0.06
15090 H 7.10247117196198 124.41635384440444 114.40780788542699 H 0.0 **** 0.06
15091 C 116.01654585455546 133.4194762544662 99.40376453679539 C 0.0 **** -0.24
15092 H 117.03461112784964 133.44391792867978 99.01372631321726 H 0.0 **** 0.06
15093 H 116.01689395858645 133.75702720252644 100.43997845223964 H 0.0 **** 0.06
15094 H 115.63372672027128 132.399527386718 99.35306995783651 H 0.0 **** 0.06
15095 H 115.38293964694358 134.0752904841805 98.80760526407397 H 0.0 **** 0.06
15096 C 35.53564656789791 8.952253975509393 16.959313780645374 C 0.0 **** -0.24
15097 H 35.99763717400168 9.523648125954821 17.764087315666814 H 0.0 **** 0.06
15098 H 34.5492853677477 8.61232133166942 17.27570193423631 H 0.0 **** 0.06
15099 H 36.15829112191716 8.089823414426405 16.72176307181087 H 0.0 **** 0.06
15100 H 35.43649694121984 9.583316051770396 16.07617672186899 H 0.0 **** 0.06
15101 C 72.7257612984003 93.30804962476162 2.883575388282054 C 0.0 **** -0.24
15102 H 71.85992588374677 93.39270940865777 2.227253215756491 H 0.0 **** 0.06
15103 H 72.74118268298548 94.15092230915488 3.574853842191544 H 0.0 **** 0.06
15104 H 73.63740227075738 93.30985945051209 2.2864518643048086 H 0.0 **** 0.06
15105 H 72.66323785288733 92.37727787635188 3.4480396194934997 H 0.0 **** 0.06
15106 C 78.44252478154313 77.69636708005686 42.395104918460206 C 0.0 **** -0.24
15107 H 78.18532656055132 78.5471888124506 43.025363974966396 H 0.0 **** 0.06
15108 H 77.56305907483 77.38546534227308 41.82918942338403 H 0.0 **** 0.06
15109 H 78.78365359568409 76.87138218723828 43.020200993182236 H 0.0 **** 0.06
15110 H 79.23605479033807 77.98218785626875 41.70502619308001 H 0.0 **** 0.06
15111 C 68.56317447578368 73.0767151077568 106.32596922359062 C 0.0 **** -0.24
15112 H 69.18891193711491 73.96810689048263 106.27680214627219 H 0.0 **** 0.06
15113 H 68.60356484749497 72.65990422691277 107.33179093746162 H 0.0 **** 0.06
15114 H 68.9260661348215 72.33819409218933 105.61097242255869 H 0.0 **** 0.06
15115 H 67.53369109718318 73.34243895329712 106.08269788627422 H 0.0 **** 0.06
15116 C 124.20754324231144 46.03783281763542 117.73249189804733 C 0.0 **** -0.24
15117 H 123.3507597296298 45.422429771522005 118.00665454807026 H 0.0 **** 0.06
15118 H 124.70891966804916 45.599179196536596 116.87023340758248 H 0.0 **** 0.06
15119 H 124.9023809689319 46.086856354001426 118.57148077453188 H 0.0 **** 0.06
15120 H 123.86788959490576 47.043632466926226 117.48368762928669 H 0.0 **** 0.06
15121 C 130.7654813535606 62.762228242386385 121.26453595287468 C 0.0 **** -0.24
15122 H 129.95338366535913 62.84611664580949 120.54272772578209 H 0.0 **** 0.06
15123 H 130.80629127699643 61.74314990655506 121.64962422183734 H 0.0 **** 0.06
15124 H 130.5918039994197 63.45515998268117 122.08846428201416 H 0.0 **** 0.06
15125 H 131.71013205108213 63.006373500529605 120.77848531789932 H 0.0 **** 0.06
15126 C 104.74193722758812 85.14762540065539 65.81887045658443 C 0.0 **** -0.24
15127 H 105.79471199677899 85.1710270855886 66.09865191535219 H 0.0 **** 0.06
15128 H 104.36920209131645 84.12492886532709 65.89490001233634 H 0.0 **** 0.06
15129 H 104.6306513844423 85.49913472716881 64.7935833394688 H 0.0 **** 0.06
15130 H 104.17317470841414 85.79231087455508 66.48897112092493 H 0.0 **** 0.06
15131 C 13.314034865388862 20.97034658694656 99.90252081154189 C 0.0 **** -0.24
15132 H 14.083752760474795 20.75935348259111 100.64517170720208 H 0.0 **** 0.06
15133 H 13.206329435110604 22.049805120123096 99.78938395576134 H 0.0 **** 0.06
15134 H 12.365924070251424 20.543377249756702 100.23045403253572 H 0.0 **** 0.06
15135 H 13.600796058803724 20.53110105550593 98.94719394092144 H 0.0 **** 0.06
15136 C 106.62409681674292 96.85494847864308 91.62824845623666 C 0.0 **** -0.24
15137 H 106.47653328704757 96.74171688859931 90.55409917097053 H 0.0 **** 0.06
15138 H 105.73244237777791 97.29925965161486 92.07206380806437 H 0.0 **** 0.06
15139 H 107.48236200583331 97.50245793715864 91.81053799296642 H 0.0 **** 0.06
15140 H 106.80423818744393 95.87753707603164 92.07531565211276 H 0.0 **** 0.06
15141 C 78.07376967665179 26.142489430851242 50.27560736677765 C 0.0 **** -0.24
15142 H 78.86012293329122 26.212926437081478 49.523787397413116 H 0.0 **** 0.06
15143 H 77.10046864417036 26.14920504351778 49.783851215117465 H 0.0 **** 0.06
15144 H 78.1436755779919 26.99180992708426 50.95497170642784 H 0.0 **** 0.06
15145 H 78.19074479153018 25.21664664438373 50.837922199466675 H 0.0 **** 0.06
15146 C 86.12428838491644 75.49718893815808 119.88084343750268 C 0.0 **** -0.24
15147 H 87.0029870373667 76.05912784656005 120.19950072164798 H 0.0 **** 0.06
15148 H 86.43911872942851 74.5478433263084 119.44641407419218 H 0.0 **** 0.06
15149 H 85.57510668317715 76.0736578702782 119.13674796842055 H 0.0 **** 0.06
15150 H 85.48274297775964 75.30957021246502 120.74096825190972 H 0.0 **** 0.06
15151 C 113.71767882149607 128.1948650973009 56.480206203036715 C 0.0 **** -0.24
15152 H 113.13156252864098 128.38750370286854 57.37796288027768 H 0.0 **** 0.06
15153 H 113.10636429504027 127.65358568957775 55.7572737920882 H 0.0 **** 0.06
15154 H 114.59177853981981 127.59654335009881 56.73852744102494 H 0.0 **** 0.06
15155 H 114.04100992248354 129.14182764665875 56.047060698756496 H 0.0 **** 0.06
15156 C 111.30320661649722 36.49332525303599 27.287302668575904 C 0.0 **** -0.24
15157 H 111.88533860500326 35.868202047381516 27.96369851736138 H 0.0 **** 0.06
15158 H 111.61067873408805 37.533972127446035 27.39799195122289 H 0.0 **** 0.06
15159 H 110.2444253723904 36.3997932224892 27.526622640582005 H 0.0 **** 0.06
15160 H 111.47347773332649 36.17162398776666 26.259248602043435 H 0.0 **** 0.06
15161 C 118.78046924386115 93.95845824098177 1.1717678624589496 C 0.0 **** -0.24
15162 H 118.03403158234178 93.20500525340424 1.421077758923417 H 0.0 **** 0.06
15163 H 119.77198565107375 93.5051722484385 1.185410276963637 H 0.0 **** 0.06
15164 H 118.73971566840211 94.7666423805781 1.9024303232955333 H 0.0 **** 0.06
15165 H 118.57635080767244 94.35739404324659 0.177251882833815 H 0.0 **** 0.06
15166 C 21.798372069076237 84.22964658263061 72.12892507057882 C 0.0 **** -0.24
15167 H 22.46960496679786 84.86155240732978 71.54788595138291 H 0.0 **** 0.06
15168 H 21.562153914746162 83.33093362525733 71.55965357098682 H 0.0 **** 0.06
15169 H 20.880334037541502 84.77575274443143 72.34347633751625 H 0.0 **** 0.06
15170 H 22.28256698809483 83.95096477870709 73.06518081625785 H 0.0 **** 0.06
15171 C 82.1125422944068 78.04596371631493 123.42084428045604 C 0.0 **** -0.24
15172 H 83.01444903081426 77.61279026157837 122.98741135882125 H 0.0 **** 0.06
15173 H 82.3499966847895 78.48001178350324 124.39258385158034 H 0.0 **** 0.06
15174 H 81.35873709137181 77.26836236774574 123.5431345430066 H 0.0 **** 0.06
15175 H 81.72907331399307 78.82273141438077 122.75944535760513 H 0.0 **** 0.06
15176 C 89.52076774131945 102.15127570375083 80.978202911447 C 0.0 **** -0.24
15177 H 89.22122017126935 103.18211631169419 80.78830038105997 H 0.0 **** 0.06
15178 H 89.93904730784351 101.72184725312658 80.06773793044346 H 0.0 **** 0.06
15179 H 88.6512510845713 101.57177053682969 81.28703226238957 H 0.0 **** 0.06
15180 H 90.27040368055526 102.13117348696301 81.76909033083649 H 0.0 **** 0.06
15181 C 92.87724819107288 36.77176578814017 113.88662213856713 C 0.0 **** -0.24
15182 H 92.93282937644983 36.78395459735876 112.79777492240339 H 0.0 **** 0.06
15183 H 93.77741937579779 36.309568077380646 114.29021985542414 H 0.0 **** 0.06
15184 H 92.00344798377557 36.200758282639754 114.19839549679986 H 0.0 **** 0.06
15185 H 92.79450737629548 37.79344945683235 114.257281684698 H 0.0 **** 0.06
15186 C 14.48289548089923 111.0230583985186 95.10788882736972 C 0.0 **** -0.24
15187 H 13.524013211314923 110.93335028341292 95.61823998339685 H 0.0 **** 0.06
15188 H 15.246406585244557 111.3338667867375 95.82052545900166 H 0.0 **** 0.06
15189 H 14.403333458208465 111.76480662371128 94.31332196080277 H 0.0 **** 0.06
15190 H 14.757300976662862 110.05930718499852 94.67851567788449 H 0.0 **** 0.06
15191 C 52.50829511692166 68.83466502100964 35.059160579143054 C 0.0 **** -0.24
15192 H 52.84738469600336 67.87488336915123 35.448501668144615 H 0.0 **** 0.06
15193 H 51.427998373374066 68.91588164967754 35.182829109339224 H 0.0 **** 0.06
15194 H 52.759970520550496 68.90671622593277 34.00054014281375 H 0.0 **** 0.06
15195 H 52.998302717613115 69.64160875436096 35.60400406596767 H 0.0 **** 0.06
15196 C 14.445890273871761 87.97840616432319 111.36594612595815 C 0.0 **** -0.24
15197 H 14.99080323625541 87.15170330230018 111.82196401297955 H 0.0 **** 0.06
15198 H 13.761753058667601 88.41020172495945 112.09680449225374 H 0.0 **** 0.06
15199 H 13.87873241319675 87.60946456190922 110.51020188334101 H 0.0 **** 0.06
15200 H 15.151133724579317 88.73960595101028 111.03289417209967 H 0.0 **** 0.06
15201 C 125.02126247706286 83.50212479477193 53.39266444269316 C 0.0 **** -0.24
15202 H 124.26103088932061 83.97105062862789 52.76744401202251 H 0.0 **** 0.06
15203 H 125.7634997214179 84.24624736836148 53.68025007356283 H 0.0 **** 0.06
15204 H 125.50589697883441 82.70156929938705 52.834236885068776 H 0.0 **** 0.06
15205 H 124.55304521899276 83.09020117275469 54.28644885450882 H 0.0 **** 0.06
15206 C 43.832846149659645 33.42515735923755 105.97519738909011 C 0.0 **** -0.24
15207 H 44.19634585693285 33.971985438489604 105.10398319493858 H 0.0 **** 0.06
15208 H 44.66225506014524 33.241680001911064 106.65918718558115 H 0.0 **** 0.06
15209 H 43.407497508408426 32.473960494617515 105.65455874719157 H 0.0 **** 0.06
15210 H 43.067538459485206 34.014437918756656 106.47991870260486 H 0.0 **** 0.06
15211 C 69.69251497767601 81.73977414853815 75.7856413840813 C 0.0 **** -0.24
15212 H 70.18892170641863 81.59443522699391 74.82591952704597 H 0.0 **** 0.06
15213 H 69.65091477082514 80.79044939455008 76.32071992935883 H 0.0 **** 0.06
15214 H 68.68061846899784 82.10755248041107 75.61886139248737 H 0.0 **** 0.06
15215 H 70.25071849575552 82.46541710604328 76.37659921590608 H 0.0 **** 0.06
15216 C 129.21315022566466 43.74921565320446 134.00506155793022 C 0.0 **** -0.24
15217 H 130.0249403448277 43.3145711670669 134.5881516248764 H 0.0 **** 0.06
15218 H 128.32934059337856 43.11408294825176 134.08389787262885 H 0.0 **** 0.06
15219 H 129.51496836220286 43.82203717109519 132.95984247234216 H 0.0 **** 0.06
15220 H 128.9821780304411 44.74272483225903 134.38749109551097 H 0.0 **** 0.06
15221 C 69.3535156491753 42.831750123881136 6.184689970699679 C 0.0 **** -0.24
15222 H 69.50245125126018 42.98913240790807 5.116427331404822 H 0.0 **** 0.06
15223 H 70.03777925771551 42.06054956582996 6.537636211621873 H 0.0 **** 0.06
15224 H 68.32579288007705 42.518033340286806 6.365976272884637 H 0.0 **** 0.06
15225 H 69.5485530520548 43.76255723077256 6.71854637954641 H 0.0 **** 0.06
15226 C 33.7530778793346 36.068699820919164 22.870460093245264 C 0.0 **** -0.24
15227 H 33.780836780450954 37.14847846304298 22.721072572715904 H 0.0 **** 0.06
15228 H 34.73756160208086 35.64777437896947 22.666375231519034 H 0.0 **** 0.06
15229 H 33.02071304501641 35.627551377884345 22.19312787134369 H 0.0 **** 0.06
15230 H 33.47046301203497 35.8530447518595 23.90070995394906 H 0.0 **** 0.06
15231 C 126.4300474575047 105.61046455998384 56.51015215318478 C 0.0 **** -0.24
15232 H 126.60839722343937 105.5013349349424 57.58033306761553 H 0.0 **** 0.06
15233 H 125.43887361332293 106.03683811671564 56.349587055566246 H 0.0 **** 0.06
15234 H 126.48782709068853 104.63373759038946 56.03077134620338 H 0.0 **** 0.06
15235 H 127.18356120939976 106.27178115335005 56.08242624856297 H 0.0 **** 0.06
15236 C 101.28351947121476 63.26961819108544 13.639718421167231 C 0.0 **** -0.24
15237 H 100.5686297601747 63.675242894096385 14.355363128189396 H 0.0 **** 0.06
15238 H 100.75230221108487 62.91356004319425 12.756963140560558 H 0.0 **** 0.06
15239 H 101.82562448969375 62.44209597874193 14.098052609795104 H 0.0 **** 0.06
15240 H 101.98917929297897 64.04972109860596 13.351071904327796 H 0.0 **** 0.06
15241 C 84.50441688407155 17.04762640768942 45.67948831674801 C 0.0 **** -0.24
15242 H 84.15684297042802 16.217149122540462 46.29418899761242 H 0.0 **** 0.06
15243 H 84.32319878974191 17.98650850355925 46.20138333477803 H 0.0 **** 0.06
15244 H 83.96518374889374 17.048630935487935 44.73241035721128 H 0.0 **** 0.06
15245 H 85.5722937298008 16.936261590616198 45.489577770968026 H 0.0 **** 0.06
15246 C 38.04629082484985 38.63875849791509 16.204402188336836 C 0.0 **** -0.24
15247 H 37.98351741344172 37.9932671393297 15.328164503639876 H 0.0 **** 0.06
15248 H 38.53628032078717 39.57410785357979 15.932247853726821 H 0.0 **** 0.06
15249 H 38.62358754899344 38.13978668614175 16.983098989962848 H 0.0 **** 0.06
15250 H 37.04224063215494 38.84868757678498 16.573749013814997 H 0.0 **** 0.06
15251 C 135.82241203048076 85.53259206139091 19.216349318061987 C 0.0 **** -0.24
15252 H 135.54099630827034 86.07098962486234 18.311116565771044 H 0.0 **** 0.06
15253 H 135.77820573037684 86.20951867119066 20.069409820171927 H 0.0 **** 0.06
15254 H 136.83652330675446 85.14811899907244 19.109191359897352 H 0.0 **** 0.06
15255 H 135.1332239232525 84.70260040663089 19.373494757028652 H 0.0 **** 0.06
15256 C 2.6413644087281227 58.85454412735983 88.98560098231536 C 0.0 **** -0.24
15257 H 1.9842882811750542 59.1839804310126 89.79037594387796 H 0.0 **** 0.06
15258 H 2.119203020546138 58.94119090665242 88.03193597126426 H 0.0 **** 0.06
15259 H 2.925928196960058 57.81531396205028 89.15157144726112 H 0.0 **** 0.06
15260 H 3.5351503075471555 59.47754489327296 88.96808422058456 H 0.0 **** 0.06
15261 C 40.27247652938462 108.05116295533156 99.19426414680782 C 0.0 **** -0.24
15262 H 39.76247934422466 108.28532341638174 100.12891693264453 H 0.0 **** 0.06
15263 H 39.64864953002041 108.35849167812584 98.35400819522613 H 0.0 **** 0.06
15264 H 40.45416499485593 106.97719282536296 99.13928610096417 H 0.0 **** 0.06
15265 H 41.22279156279788 108.58305232044532 99.1560009393942 H 0.0 **** 0.06
15266 C 3.378957286110733 13.785962862445217 92.22526052635703 C 0.0 **** -0.24
15267 H 4.174986280997473 13.671003149244797 92.96005444653406 H 0.0 **** 0.06
15268 H 2.7085041123564224 14.586817206154507 92.53937832380649 H 0.0 **** 0.06
15269 H 2.8201931186791285 12.853752190733218 92.14605255300481 H 0.0 **** 0.06
15270 H 3.8119409303203042 14.033988680742198 91.25657410441613 H 0.0 **** 0.06
15271 C 62.2148846481565 12.8047348743126 45.40953339482289 C 0.0 **** -0.24
15272 H 61.28151384403202 12.569039377232741 44.897547387430535 H 0.0 **** 0.06
15273 H 62.18051022844028 12.410569674179442 46.42598572092204 H 0.0 **** 0.06
15274 H 62.34721463563241 13.886241398077289 45.44354053509454 H 0.0 **** 0.06
15275 H 63.04831145601321 12.352231120950933 44.87220465927632 H 0.0 **** 0.06
15276 C 34.05543420962471 110.3274068061321 1.8272829038534724 C 0.0 **** -0.24
15277 H 34.78541648681369 111.0372017998755 1.4377369902135797 H 0.0 **** 0.06
15278 H 33.200970117791485 110.27803367530612 1.1503533686230867 H 0.0 **** 0.06
15279 H 33.72127422757353 110.65307517084739 2.811752928245994 H 0.0 **** 0.06
15280 H 34.51327057390972 109.34196619127732 1.9070680670965885 H 0.0 **** 0.06
15281 C 9.493538912298984 48.17282754075421 33.00985980238573 C 0.0 **** -0.24
15282 H 10.445567597318878 48.681826449122354 32.86320202904892 H 0.0 **** 0.06
15283 H 9.268068189335697 47.56309260757365 32.134484246994816 H 0.0 **** 0.06
15284 H 8.704726790087992 48.911565491979786 33.15210515828301 H 0.0 **** 0.06
15285 H 9.556514434064997 47.53443324113667 33.89172765800748 H 0.0 **** 0.06
15286 C 25.422309628038235 52.35200827426894 83.71716876235021 C 0.0 **** -0.24
15287 H 24.772073506328326 53.11478780937921 84.14600258666854 H 0.0 **** 0.06
15288 H 26.456830798327367 52.56232430559177 83.98755765393452 H 0.0 **** 0.06
15289 H 25.321029896103454 52.356803294163 82.6312407945575 H 0.0 **** 0.06
15290 H 25.13698141602883 51.372503833563655 84.10387540777833 H 0.0 **** 0.06
15291 C 15.034959589303952 122.63906011080047 116.17093960077182 C 0.0 **** -0.24
15292 H 15.254117489985703 123.67470491172708 115.91258579828684 H 0.0 **** 0.06
15293 H 14.329049164791257 122.61308528356636 117.00142793315763 H 0.0 **** 0.06
15294 H 15.956714701864001 122.13415936389919 116.4605131222715 H 0.0 **** 0.06
15295 H 14.600242113744457 122.13388618981631 115.30729373656379 H 0.0 **** 0.06
15296 C 53.18532988497719 80.1322673531383 92.6321584099272 C 0.0 **** -0.24
15297 H 54.01470725338473 79.61770815670747 92.14646499213418 H 0.0 **** 0.06
15298 H 52.288850460369474 80.03307279990315 92.02003983610194 H 0.0 **** 0.06
15299 H 53.43183479286054 81.18748621231242 92.74905384543865 H 0.0 **** 0.06
15300 H 53.00874126290515 79.68994133078868 93.61191763970078 H 0.0 **** 0.06
15301 C 20.064352885718506 26.034068529938963 120.40556678648915 C 0.0 **** -0.24
15302 H 20.587526261585595 25.632683011460074 119.53785869657635 H 0.0 **** 0.06
15303 H 20.457247219354542 25.570525229473446 121.31170298809683 H 0.0 **** 0.06
15304 H 18.999849033590863 25.819691191089873 120.31913821814197 H 0.0 **** 0.06
15305 H 20.215715747172567 27.11233484826988 120.45473066937257 H 0.0 **** 0.06
15306 C 76.71401400266149 31.359683161489215 43.952459907005995 C 0.0 **** -0.24
15307 H 77.01915869619287 30.355337854944196 43.65842369952215 H 0.0 **** 0.06
15308 H 75.63498985787717 31.460287424698038 43.83534995747496 H 0.0 **** 0.06
15309 H 77.21848325782432 32.091808441546505 43.322853402064 H 0.0 **** 0.06
15310 H 76.98354281032185 31.530019523528438 44.99504267701887 H 0.0 **** 0.06
15311 C 33.814729222615924 65.62561422359651 93.42130198010585 C 0.0 **** -0.24
15312 H 34.451570898449546 65.35011247829976 92.58061622692202 H 0.0 **** 0.06
15313 H 34.15978546504533 66.56956692624891 93.84425184477908 H 0.0 **** 0.06
15314 H 33.86057042145542 64.84741870936723 94.18271274775168 H 0.0 **** 0.06
15315 H 32.78655735646305 65.73587793901613 93.07689004669169 H 0.0 **** 0.06
15316 C 121.61528362376131 58.89992368240833 128.84109151126648 C 0.0 **** -0.24
15317 H 121.35722594157363 57.964149713266124 129.33751713622746 H 0.0 **** 0.06
15318 H 121.62809694445772 58.74703129570375 127.76153704792006 H 0.0 **** 0.06
15319 H 122.60049227719108 59.22732044439377 129.17433521661087 H 0.0 **** 0.06
15320 H 120.87640906056978 59.6607977578814 129.0917866746497 H 0.0 **** 0.06
15321 C 5.506935548559564 31.661697567899182 15.155008418042684 C 0.0 **** -0.24
15322 H 4.587621754773817 31.25044268407919 14.73720384097939 H 0.0 **** 0.06
15323 H 6.357992224832348 31.07825865719451 14.803813842316117 H 0.0 **** 0.06
15324 H 5.461209661800957 31.618912675848605 16.24311578807348 H 0.0 **** 0.06
15325 H 5.619176076304406 32.6978774461229 14.836426607633953 H 0.0 **** 0.06
15326 C 121.30474367302283 99.53498292509899 56.3185051756777 C 0.0 **** -0.24
15327 H 120.97795863098852 98.55460552320213 56.66464782162761 H 0.0 **** 0.06
15328 H 120.47377959124746 100.04253349111886 55.827852330802884 H 0.0 **** 0.06
15329 H 122.12598561744491 99.41436856313621 55.61116582115312 H 0.0 **** 0.06
15330 H 121.64228710322175 100.1265131466639 57.16922573310711 H 0.0 **** 0.06
15331 C 32.0847664473332 56.555578716039236 20.371317446126938 C 0.0 **** -0.24
15332 H 32.76924321776172 55.80728080567145 19.971716580726337 H 0.0 **** 0.06
15333 H 32.6327544185556 57.24180815742372 21.01669979892216 H 0.0 **** 0.06
15334 H 31.30272265720921 56.06044752486983 20.94683953059682 H 0.0 **** 0.06
15335 H 31.633256437424173 57.11170888840729 19.549195163838306 H 0.0 **** 0.06
15336 C 133.26593095304378 110.42623492625734 87.7641861305253 C 0.0 **** -0.24
15337 H 132.2613105150869 110.59424158622951 87.37643545356065 H 0.0 **** 0.06
15338 H 133.9601780944369 110.30267316074114 86.93243586586095 H 0.0 **** 0.06
15339 H 133.27144686747872 109.52658236367773 88.37966229452076 H 0.0 **** 0.06
15340 H 133.5707883351724 111.28144259438105 88.36821090815903 H 0.0 **** 0.06
15341 C 135.34611992372345 49.35669622414059 61.592554854453994 C 0.0 **** -0.24
15342 H 135.97810228488868 50.11780953840264 61.13399851108639 H 0.0 **** 0.06
15343 H 134.68614364286776 49.824228044653864 62.32345456010533 H 0.0 **** 0.06
15344 H 135.9721831202158 48.615767322905725 62.08979453777211 H 0.0 **** 0.06
15345 H 134.7474207653721 48.86963880276778 60.822560394088356 H 0.0 **** 0.06
15346 C 112.01360067435434 105.55392139002234 5.558407587522879 C 0.0 **** -0.24
15347 H 112.44676285923785 106.41306589875848 5.046342854932959 H 0.0 **** 0.06
15348 H 110.9477434178373 105.72213981879503 5.712365141624105 H 0.0 **** 0.06
15349 H 112.50413243263554 105.42113382572882 6.522925155733958 H 0.0 **** 0.06
15350 H 112.15792203278878 104.6589705838939 4.952446779031163 H 0.0 **** 0.06
15351 C 103.48441528989935 72.43020368851012 128.59015293169273 C 0.0 **** -0.24
15352 H 103.59030654210581 73.46913555460617 128.2779291642707 H 0.0 **** 0.06
15353 H 102.44990525817947 72.24156646092672 128.87921021021464 H 0.0 **** 0.06
15354 H 104.1403597089207 72.23723193207735 129.43838629060912 H 0.0 **** 0.06
15355 H 103.75620661181286 71.77385239694775 127.7632759549208 H 0.0 **** 0.06
15356 C 21.39140091790091 44.77681056202687 70.41325822639304 C 0.0 **** -0.24
15357 H 20.910212025940652 45.6633252828716 69.99878384292299 H 0.0 **** 0.06
15358 H 22.215627028974296 45.08056801645324 71.05878498705611 H 0.0 **** 0.06
15359 H 21.773888907417557 44.15822733021713 69.60127374846313 H 0.0 **** 0.06
15360 H 20.665412331739702 44.20819194296064 70.99359128386064 H 0.0 **** 0.06
15361 C 132.01490372193788 113.68768265986017 20.459983221026157 C 0.0 **** -0.24
15362 H 132.281798099787 113.1874093905559 21.391353796334343 H 0.0 **** 0.06
15363 H 131.84978688705993 114.7484428282053 20.65291437945575 H 0.0 **** 0.06
15364 H 131.10314098335942 113.24479656554033 20.058690689269298 H 0.0 **** 0.06
15365 H 132.82397246048689 113.56971339870935 19.739806820386505 H 0.0 **** 0.06
15366 C 98.03821594617395 85.87974090263742 100.0800272883767 C 0.0 **** -0.24
15367 H 99.06413836102541 85.67403902745241 100.3846910015632 H 0.0 **** 0.06
15368 H 97.3853136187049 85.84040447191535 100.95281324525241 H 0.0 **** 0.06
15369 H 97.7190780722971 85.13375156342755 99.35212620367815 H 0.0 **** 0.06
15370 H 97.98543142305017 86.87161136177173 99.63018744187444 H 0.0 **** 0.06
15371 C 90.77618623106433 124.8863059712507 72.43664897993906 C 0.0 **** -0.24
15372 H 91.19622452786477 125.547146726231 71.67899579745777 H 0.0 **** 0.06
15373 H 89.7926598766473 124.54406355292764 72.11574078709906 H 0.0 **** 0.06
15374 H 90.68394246740063 125.42701921895177 73.37925674210993 H 0.0 **** 0.06
15375 H 91.43347038702206 124.027754063491 72.57402152939768 H 0.0 **** 0.06
15376 C 34.038148379211755 119.2192197964508 79.04574867816108 C 0.0 **** -0.24
15377 H 34.2357049119818 120.19512562433445 78.60117434464826 H 0.0 **** 0.06
15378 H 33.362533500548544 118.65594927373287 78.40088746513472 H 0.0 **** 0.06
15379 H 33.57906330268649 119.35332787562339 80.02459489743869 H 0.0 **** 0.06
15380 H 34.97588067736828 118.67344129992178 79.15416487520154 H 0.0 **** 0.06
15381 C 70.15430521937539 112.2742183816917 48.51424902631014 C 0.0 **** -0.24
15382 H 70.81026147464864 111.41473107727182 48.647376643612176 H 0.0 **** 0.06
15383 H 69.60782814460758 112.4616835792259 49.43900559310528 H 0.0 **** 0.06
15384 H 69.4468822773246 112.07084651786275 47.70951441895026 H 0.0 **** 0.06
15385 H 70.75053471889204 113.15103440380224 48.26090118899529 H 0.0 **** 0.06
15386 C 20.9509804097141 116.53845737613713 128.55469286544454 C 0.0 **** -0.24
15387 H 22.03736690095029 116.45791072799756 128.59847317949516 H 0.0 **** 0.06
15388 H 20.509747001881607 115.93073675886257 129.34566054133913 H 0.0 **** 0.06
15389 H 20.599029319080053 116.18436606263538 127.58559697390064 H 0.0 **** 0.06
15390 H 20.658806398010725 117.5792628207947 128.6902782082076 H 0.0 **** 0.06
15391 C 43.38046419770134 59.847284517803345 33.47428775759471 C 0.0 **** -0.24
15392 H 43.35800185013798 59.28112233768877 32.542930195923134 H 0.0 **** 0.06
15393 H 43.35234479784941 59.15845011073617 34.317875610889814 H 0.0 **** 0.06
15394 H 42.51726079537113 60.5118386607959 33.51653416843044 H 0.0 **** 0.06
15395 H 44.29506060525671 60.43829708799409 33.51697958303993 H 0.0 **** 0.06
15396 C 5.6715219043774425 97.97355290640202 19.540942852872462 C 0.0 **** -0.24
15397 H 5.83270845274663 97.15549513816589 20.244194246913437 H 0.0 **** 0.06
15398 H 4.795518361336519 97.75818901624838 18.928707381730305 H 0.0 **** 0.06
15399 H 6.546185532191089 98.08026526370578 18.900225271488317 H 0.0 **** 0.06
15400 H 5.509687365102934 98.90005955648444 20.09288227338667 H 0.0 **** 0.06
15401 C 50.902780593096395 19.582399659907253 27.245372909476032 C 0.0 **** -0.24
15402 H 50.41954293350403 18.742417996033282 26.746918092342185 H 0.0 **** 0.06
15403 H 50.222775662194834 20.006673323584096 27.984212691310972 H 0.0 **** 0.06
15404 H 51.160016140548464 20.343586915387277 26.508227105161552 H 0.0 **** 0.06
15405 H 51.80920555430916 19.237583238531442 27.74151242633951 H 0.0 **** 0.06
15406 C 46.7771711903751 23.517354187521562 26.763854348709657 C 0.0 **** -0.24
15407 H 45.727833536429046 23.407805549281193 27.03755243410245 H 0.0 **** 0.06
15408 H 46.91236732314803 23.228000685504526 25.72183678428314 H 0.0 **** 0.06
15409 H 47.386693293333224 22.877553113132677 27.401702633977152 H 0.0 **** 0.06
15410 H 47.07976273139673 24.55659748527725 26.895097718658207 H 0.0 **** 0.06
15411 C 110.9660056694629 7.574881496384673 73.11188293528193 C 0.0 **** -0.24
15412 H 109.99953671953043 7.314469462149365 73.54419698100003 H 0.0 **** 0.06
15413 H 110.85198967311493 7.741454754957726 72.04125708456951 H 0.0 **** 0.06
15414 H 111.66960313721756 6.7592265452761495 73.28063630327594 H 0.0 **** 0.06
15415 H 111.34164059110572 8.482837188402389 73.58369214269936 H 0.0 **** 0.06
15416 C 63.22283483949985 122.90929258267128 81.94395713398092 C 0.0 **** -0.24
15417 H 64.16916303285132 123.44988565094235 81.92798391767379 H 0.0 **** 0.06
15418 H 62.519310267879575 123.42817772872203 82.59485377148856 H 0.0 **** 0.06
15419 H 63.38804372417485 121.89834212339241 82.3179816070382 H 0.0 **** 0.06
15420 H 62.81649287436869 122.86054615356466 80.93323110823736 H 0.0 **** 0.06
15421 C 24.18703864213299 74.53101970623817 39.80509388580941 C 0.0 **** -0.24
15422 H 23.72718126427864 75.4922908647859 40.03645087607083 H 0.0 **** 0.06
15423 H 24.762695311238332 74.61694766609503 38.88272524315576 H 0.0 **** 0.06
15424 H 23.41007327543349 73.77809568146762 39.67905731424645 H 0.0 **** 0.06
15425 H 24.847807551329424 74.2386672013804 40.621071529034765 H 0.0 **** 0.06
15426 C 57.44627713270961 91.94759262358852 26.907411184171252 C 0.0 **** -0.24
15427 H 57.77590744513199 91.3180175261765 27.73352503049449 H 0.0 **** 0.06
15428 H 56.366222929472116 91.85482006505026 26.787990533756755 H 0.0 **** 0.06
15429 H 57.942492162625655 91.63210341382896 25.989889935617725 H 0.0 **** 0.06
15430 H 57.70028785330206 92.98633409837052 27.11861668772974 H 0.0 **** 0.06
15431 C 17.890395299167494 122.40112485641944 134.0257494500521 C 0.0 **** -0.24
15432 H 17.314531314413017 123.22463642497479 134.44969932356747 H 0.0 **** 0.06
15433 H 17.83908814327671 122.44472867310886 132.93767851484174 H 0.0 **** 0.06
15434 H 17.47875303836915 121.45387249018503 134.37277628207818 H 0.0 **** 0.06
15435 H 18.929762216873826 122.48370733981875 134.34415269021855 H 0.0 **** 0.06
15436 C 36.906229452677195 2.6166247475758766 43.76377122039618 C 0.0 **** -0.24
15437 H 36.4792604073524 1.6546801973049732 43.47772709555729 H 0.0 **** 0.06
15438 H 36.114683360074594 3.3637750311847903 43.81693394969117 H 0.0 **** 0.06
15439 H 37.644191377507866 2.920409187677805 43.02074812999868 H 0.0 **** 0.06
15440 H 37.387170080772236 2.524654528974356 44.737683259862116 H 0.0 **** 0.06
15441 C 54.12489411779838 6.265080776810038 62.062408240526025 C 0.0 **** -0.24
15442 H 53.45363069947858 5.482451564371559 61.707671662513036 H 0.0 **** 0.06
15443 H 55.156544525267975 5.921025513924604 61.98646424450884 H 0.0 **** 0.06
15444 H 53.89345227130741 6.495439317534618 63.102414818784766 H 0.0 **** 0.06
15445 H 53.99303774504507 7.159610896368747 61.4542225828159 H 0.0 **** 0.06
15446 C 49.465888683279616 63.73641968907445 100.51410518003145 C 0.0 **** -0.24
15447 H 50.030427311383434 63.932299897801784 101.4245710204623 H 0.0 **** 0.06
15448 H 48.85017209454023 64.60315287343361 100.27392872943796 H 0.0 **** 0.06
15449 H 48.826060403977564 62.86597505054212 100.66328300003327 H 0.0 **** 0.06
15450 H 50.15652634716078 63.542338308509215 99.69315261114089 H 0.0 **** 0.06
15451 C 59.37387322603314 136.08421705389435 67.70508178156865 C 0.0 **** -0.24
15452 H 58.69878516466122 135.24386822846319 67.86578961221483 H 0.0 **** 0.06
15453 H 60.13723858576526 136.08979739100988 68.48330749607362 H 0.0 **** 0.06
15454 H 58.810268070641996 137.01655381191227 67.74294299049538 H 0.0 **** 0.06
15455 H 59.849916941828724 135.98613664320362 66.72939398301378 H 0.0 **** 0.06
15456 C 17.912617560025296 135.2614088525309 64.41187617327368 C 0.0 **** -0.24
15457 H 17.080228273352702 134.8079721321118 64.94935384109273 H 0.0 **** 0.06
15458 H 18.815064176846874 135.1982793870498 65.02127334511592 H 0.0 **** 0.06
15459 H 17.6847708024207 136.30802631987365 64.20666443952737 H 0.0 **** 0.06
15460 H 18.07000156882441 134.73245769573822 63.47211716641054 H 0.0 **** 0.06
15461 C 41.11444473530544 131.32771165730216 88.96590430486613 C 0.0 **** -0.24
15462 H 40.02853849947394 131.26218570428316 89.03249296651151 H 0.0 **** 0.06
15463 H 41.49573436320917 131.90418307624128 89.80831925631657 H 0.0 **** 0.06
15464 H 41.39212735025806 131.81820886842556 88.03309140792989 H 0.0 **** 0.06
15465 H 41.541220522265895 130.32430412688265 88.98937519920692 H 0.0 **** 0.06
15466 C 41.695489387019734 101.24121804948123 19.098842369406952 C 0.0 **** -0.24
15467 H 41.6079872843668 102.31984726735826 19.22483602731313 H 0.0 **** 0.06
15468 H 40.83999904755706 100.75001291992494 19.561886466992917 H 0.0 **** 0.06
15469 H 42.614526790043385 100.8938186850988 19.571790608366314 H 0.0 **** 0.06
15470 H 41.721175265502495 101.00130941821028 18.035445364952807 H 0.0 **** 0.06
15471 C 64.03681663028058 16.152518760811176 93.1345373670224 C 0.0 **** -0.24
15472 H 64.50069661355087 16.25280776110708 94.11554833396664 H 0.0 **** 0.06
15473 H 64.58161553196919 16.759664673454324 92.41163138714512 H 0.0 **** 0.06
15474 H 63.00145580858913 16.489479347778854 93.18683077369269 H 0.0 **** 0.06
15475 H 64.06345822929217 15.106973334431984 92.8254336473816 H 0.0 **** 0.06
15476 C 63.239922201478066 53.192949046434265 54.513746436050056 C 0.0 **** -0.24
15477 H 63.64386971017973 54.02545860941835 55.09012419068529 H 0.0 **** 0.06
15478 H 62.96267053227493 52.38390335213674 55.189752835780325 H 0.0 **** 0.06
15479 H 63.993365821736234 52.838566374099756 53.81132161596395 H 0.0 **** 0.06
15480 H 62.35904938950699 53.525311543687124 53.96440198577953 H 0.0 **** 0.06
15481 C 136.20586796493407 51.672230778903014 22.955776391081194 C 0.0 **** -0.24
15482 H 135.4539129262376 52.330576118188645 22.52128925184605 H 0.0 **** 0.06
15483 H 136.91602648385884 52.263371691136186 23.534792284486556 H 0.0 **** 0.06
15484 H 136.73476737631185 51.148539840038325 22.15878685229052 H 0.0 **** 0.06
15485 H 135.72028497048126 50.94618577215634 23.607444897629485 H 0.0 **** 0.06
15486 C 99.2982548807688 41.802674254492814 109.25223165964933 C 0.0 **** -0.24
15487 H 98.67206474550314 42.67667583411941 109.07249790050852 H 0.0 **** 0.06
15488 H 99.69706959116817 41.844403244591746 110.26550089953679 H 0.0 **** 0.06
15489 H 100.12065705285875 41.79190629202725 108.53651746512517 H 0.0 **** 0.06
15490 H 98.70157180367381 40.898398065097666 109.13274133779181 H 0.0 **** 0.06
15491 C 124.25658807141212 4.327919963460129 131.85999148349 C 0.0 **** -0.24
15492 H 125.19997138808834 4.84166012848927 132.0437385982552 H 0.0 **** 0.06
15493 H 124.04009758157017 3.657962044437607 132.6921268805936 H 0.0 **** 0.06
15494 H 124.33008605313933 3.7501056725038246 130.938552519787 H 0.0 **** 0.06
15495 H 123.45552293711853 5.0616043639118935 131.7661994523663 H 0.0 **** 0.06
15496 C 137.02833954768766 6.5949128350266335 58.256185417020546 C 0.0 **** -0.24
15497 H 138.06360614127487 6.716595890606158 57.940080526123396 H 0.0 **** 0.06
15498 H 136.77032553696318 5.5352785163395595 58.25623770316537 H 0.0 **** 0.06
15499 H 136.37322294742057 7.128554112183224 57.567196073908065 H 0.0 **** 0.06
15500 H 136.90494637816224 6.999228788354401 59.26057964727161 H 0.0 **** 0.06
15501 C 133.42346825246383 66.78151732290371 136.74237537574948 C 0.0 **** -0.24
15502 H 132.43897215434478 66.42709246214974 137.04826837573046 H 0.0 **** 0.06
15503 H 133.72855567641452 66.2643498195203 135.83247235025726 H 0.0 **** 0.06
15504 H 134.14374496113064 66.58108973624633 137.5353087205275 H 0.0 **** 0.06
15505 H 133.37989613370672 67.85483211377039 136.55334372998476 H 0.0 **** 0.06
15506 C 107.90498560657366 59.9993029305632 128.11496566675555 C 0.0 **** -0.24
15507 H 108.87648245563292 59.57072305905223 128.36297830618116 H 0.0 **** 0.06
15508 H 107.90401213251778 60.319017645589724 127.07333589861315 H 0.0 **** 0.06
15509 H 107.7116857916186 60.85636250616079 128.7596680027117 H 0.0 **** 0.06
15510 H 107.12870579140542 59.24824786249667 128.26669592058965 H 0.0 **** 0.06
15511 C 106.702672904304 79.2324359389786 40.26070701282475 C 0.0 **** -0.24
15512 H 106.96541285038757 78.86972740145904 39.267043944875184 H 0.0 **** 0.06
15513 H 107.41202917999544 80.0020664238548 40.56623718830059 H 0.0 **** 0.06
15514 H 106.73575879518711 78.40542792540835 40.97048808097253 H 0.0 **** 0.06
15515 H 105.69709107665449 79.65280553734178 40.239930550287056 H 0.0 **** 0.06
15516 C 14.624998279923794 2.106964946548544 8.22850810561414 C 0.0 **** -0.24
15517 H 15.715405878952922 2.088327574091551 8.221947820345576 H 0.0 **** 0.06
15518 H 14.26991096502261 2.1801610830124503 9.25715695432109 H 0.0 **** 0.06
15519 H 14.24465898143719 1.19115134744834 7.7763615386900256 H 0.0 **** 0.06
15520 H 14.273383933977499 2.966941378590633 7.659582018373953 H 0.0 **** 0.06
15521 C 61.57870028512032 11.582803509576344 8.641541664783745 C 0.0 **** -0.24
15522 H 61.163463268272 12.172564964475807 9.459157550985026 H 0.0 **** 0.06
15523 H 61.53515330362454 12.160704291608457 7.719132675469211 H 0.0 **** 0.06
15524 H 60.999579129745854 10.66691256540869 8.525044823448354 H 0.0 **** 0.06
15525 H 62.6147972855138 11.331714752276923 8.865527019535477 H 0.0 **** 0.06
15526 C 7.859703543141883 91.5992401901904 73.27727977382975 C 0.0 **** -0.24
15527 H 8.38563146868956 91.28163906718633 72.37671971303453 H 0.0 **** 0.06
15528 H 8.556233672588082 91.62062586741757 74.1152681276189 H 0.0 **** 0.06
15529 H 7.052894520675373 90.89829793916194 73.49273568742262 H 0.0 **** 0.06
15530 H 7.4449449732684165 92.59555563503302 73.12252529463552 H 0.0 **** 0.06
15531 C 94.93126717935007 30.421225703019026 118.24192784444284 C 0.0 **** -0.24
15532 H 94.60872392295923 30.17401513701511 117.22990565949044 H 0.0 **** 0.06
15533 H 95.59498004401266 31.28659455602962 118.21017647900382 H 0.0 **** 0.06
15534 H 95.4623097229213 29.57178518694728 118.67204376997887 H 0.0 **** 0.06
15535 H 94.06045074770776 30.65377927781288 118.8540247248487 H 0.0 **** 0.06
15536 C 15.454240489071083 0.9262422125880221 48.26588536786528 C 0.0 **** -0.24
15537 H 16.123377334601003 1.6780130743838981 48.6849074827922 H 0.0 **** 0.06
15538 H 14.586246407999226 0.8115958568017732 48.91521698899004 H 0.0 **** 0.06
15539 H 15.979413260138188 -0.02589221872676717 48.18994691579769 H 0.0 **** 0.06
15540 H 15.128363060477454 1.2415654175208033 47.27564037186295 H 0.0 **** 0.06
15541 C 2.2400219725514603 35.6253916012364 135.95559502381133 C 0.0 **** -0.24
15542 H 1.5312101365894932 36.419037957418766 135.7183455215616 H 0.0 **** 0.06
15543 H 1.7556989163143726 34.65612518373959 135.8313778163836 H 0.0 **** 0.06
15544 H 2.5765840446586594 35.735064907572394 136.98599967729544 H 0.0 **** 0.06
15545 H 3.0977910942410745 35.69220438328233 135.28470281858802 H 0.0 **** 0.06
15546 C 85.63404777329629 81.1990576851863 125.15749925716248 C 0.0 **** -0.24
15547 H 84.90107190490835 80.42251092907705 124.9385116322019 H 0.0 **** 0.06
15548 H 86.28829325717822 81.33408799336992 124.29546806097679 H 0.0 **** 0.06
15549 H 86.22868307550544 80.90351123177777 126.02266529648487 H 0.0 **** 0.06
15550 H 85.1191600145184 82.13514757057605 125.37321521652855 H 0.0 **** 0.06
15551 C 92.8840644360518 95.08717955502556 2.2546728330684402 C 0.0 **** -0.24
15552 H 93.42643853215725 94.5149734650949 1.502664491232622 H 0.0 **** 0.06
15553 H 92.60410642892975 94.42989215085893 3.0791865945325014 H 0.0 **** 0.06
15554 H 91.98592491920408 95.51368240839025 1.8085823031593407 H 0.0 **** 0.06
15555 H 93.51986074690302 95.88903826860394 2.629102645474916 H 0.0 **** 0.06
15556 C 101.1710504718703 19.091863332546318 103.53874338618458 C 0.0 **** -0.24
15557 H 101.14162465649315 20.15528727809997 103.77347011331698 H 0.0 **** 0.06
15558 H 101.40430352783127 18.526397022939385 104.4411745174972 H 0.0 **** 0.06
15559 H 101.93678249992958 18.906231293241532 102.7847962250334 H 0.0 **** 0.06
15560 H 100.19984802788674 18.77777668699865 103.15508663998003 H 0.0 **** 0.06
15561 C 75.45901157143419 17.080657117616965 119.49938643046643 C 0.0 **** -0.24
15562 H 75.12037692969454 18.017954260286558 119.94094357380466 H 0.0 **** 0.06
15563 H 74.60333022196039 16.538294915195763 119.09649592721371 H 0.0 **** 0.06
15564 H 75.94550384601109 16.474435091854446 120.26397600361852 H 0.0 **** 0.06
15565 H 76.16593472781358 17.291596129250422 118.69716362348471 H 0.0 **** 0.06
15566 C 7.692985591628769 122.37241991620311 25.84572758375117 C 0.0 **** -0.24
15567 H 7.990844913324224 122.98988204585925 24.998344906481094 H 0.0 **** 0.06
15568 H 6.735175725018792 121.89851503134628 25.630169012734484 H 0.0 **** 0.06
15569 H 7.597870792327683 122.99771090361293 26.733531854901884 H 0.0 **** 0.06
15570 H 8.447242678578334 121.60534096060115 26.02039919450982 H 0.0 **** 0.06
15571 C 131.92101616065025 111.15388327496413 126.5203801815459 C 0.0 **** -0.24
15572 H 131.54356669541687 111.54604358377296 125.57591511437836 H 0.0 **** 0.06
15573 H 132.572191249876 111.89330633624192 126.98677123039297 H 0.0 **** 0.06
15574 H 132.48271403479222 110.23874712537366 126.33500933039033 H 0.0 **** 0.06
15575 H 131.08259323253301 110.93746954341302 127.1838771603947 H 0.0 **** 0.06
15576 C 1.9031805587422923 104.6789657094181 61.57753872170895 C 0.0 **** -0.24
15577 H 0.9300013877665663 104.78142627655694 62.056090834882724 H 0.0 **** 0.06
15578 H 2.1201483469486107 103.62255841425588 61.41799973901681 H 0.0 **** 0.06
15579 H 2.670837046156606 105.11570951850143 62.21619623257544 H 0.0 **** 0.06
15580 H 1.8920284927221473 105.1959148226561 60.61817993046543 H 0.0 **** 0.06
15581 C 102.2027610161426 111.04775857145708 42.88196707621918 C 0.0 **** -0.24
15582 H 102.19988515227072 112.01635840005946 42.38195090820507 H 0.0 **** 0.06
15583 H 101.55015122722996 110.35974700281912 42.34589101933045 H 0.0 **** 0.06
15584 H 101.84533366471564 111.16704369779501 43.904257524512275 H 0.0 **** 0.06
15585 H 103.21826692109506 110.65037275467466 42.89681264997586 H 0.0 **** 0.06
15586 C 0.641243656427946 92.47184651977784 17.040271493230932 C 0.0 **** -0.24
15587 H 0.5343538874657838 92.9305045749677 16.05753683809104 H 0.0 **** 0.06
15588 H 0.09098859533020232 93.05694749048865 17.775912845898176 H 0.0 **** 0.06
15589 H 1.695725539098703 92.4414417209972 17.313545244044462 H 0.0 **** 0.06
15590 H 0.24385308011932239 91.45676314030447 17.011089757914135 H 0.0 **** 0.06
15591 C 106.4044423529923 6.227362402343225 57.8535414164719 C 0.0 **** -0.24
15592 H 107.35934464927556 5.797967307346141 57.55168303358096 H 0.0 **** 0.06
15593 H 106.32256488754706 6.204562321177043 58.94049694744467 H 0.0 **** 0.06
15594 H 105.5914262710192 5.648387615159422 57.415777671819114 H 0.0 **** 0.06
15595 H 106.34438256273233 7.259528791013203 57.506275671732965 H 0.0 **** 0.06
15596 C 13.05495676710295 49.20384746965709 74.16373382859723 C 0.0 **** -0.24
15597 H 13.800808029996432 49.712059885204496 74.7752402596754 H 0.0 **** 0.06
15598 H 12.166189529502304 49.00679626652786 74.76417344787563 H 0.0 **** 0.06
15599 H 13.463724370048258 48.261791841098045 73.79917207554115 H 0.0 **** 0.06
15600 H 12.788385557728635 49.83708195714638 73.31643044577186 H 0.0 **** 0.06
15601 C 93.01502523930668 66.11709727138117 11.783308732954936 C 0.0 **** -0.24
15602 H 93.72269368696135 66.64346968008226 12.424453455862249 H 0.0 **** 0.06
15603 H 92.35000495330743 65.51023429762569 12.39923283162102 H 0.0 **** 0.06
15604 H 93.56029888163809 65.47350894922312 11.092848164966938 H 0.0 **** 0.06
15605 H 92.42789617930808 66.84027166444821 11.21883442533624 H 0.0 **** 0.06
15606 C 59.38130568025558 1.0201926086795616 124.51353350080657 C 0.0 **** -0.24
15607 H 60.254212823179074 1.6317797164507297 124.74514192665445 H 0.0 **** 0.06
15608 H 59.042536680018074 0.5141345900063712 125.41781881568745 H 0.0 **** 0.06
15609 H 59.64825615148375 0.2791296053391221 123.75997849872363 H 0.0 **** 0.06
15610 H 58.583289661725146 1.656931011751471 124.13152472288417 H 0.0 **** 0.06
15611 C 14.426543100605045 77.83798324980305 12.914684643748714 C 0.0 **** -0.24
15612 H 13.732797321108336 77.55455656087975 13.707178958884413 H 0.0 **** 0.06
15613 H 14.496933723442012 77.02832019146359 12.187518219465517 H 0.0 **** 0.06
15614 H 15.409424995446386 78.02814881154092 13.344176478348544 H 0.0 **** 0.06
15615 H 14.064242844751675 78.73996381430157 12.421055566249379 H 0.0 **** 0.06
15616 C 73.57996690227199 94.61199340979898 83.60978601191036 C 0.0 **** -0.24
15617 H 72.62952610588803 94.21201102318966 83.25556647981071 H 0.0 **** 0.06
15618 H 73.43935099474336 95.64223984715892 83.93892363060003 H 0.0 **** 0.06
15619 H 74.30985815956781 94.58498249227219 82.80135470679035 H 0.0 **** 0.06
15620 H 73.93879307439879 94.01071382285147 84.44409507805108 H 0.0 **** 0.06
15621 C 30.442386468992026 109.00650955491164 101.13886101320979 C 0.0 **** -0.24
15622 H 30.439696389239202 109.54628870065554 100.1909963717341 H 0.0 **** 0.06
15623 H 30.465726254809226 109.72034893058779 101.96270243940685 H 0.0 **** 0.06
15624 H 31.32248739344493 108.365341785604 101.18834148548146 H 0.0 **** 0.06
15625 H 29.543131610053138 108.39603718104053 101.21120166704246 H 0.0 **** 0.06
15626 C 103.92944846484515 2.3041611058055196 118.84958638428544 C 0.0 **** -0.24
15627 H 103.99993509835241 3.0344376259424166 119.65671213386824 H 0.0 **** 0.06
15628 H 102.8966024816868 2.241672961334274 118.50604527140928 H 0.0 **** 0.06
15629 H 104.25045863294531 1.3282738156804044 119.21392898810663 H 0.0 **** 0.06
15630 H 104.56998793322576 2.6129230674577286 118.02363524211924 H 0.0 **** 0.06
15631 C 48.67544892727014 132.52104241357185 50.041544164585886 C 0.0 **** -0.24
15632 H 47.72156400098818 132.05557653564756 49.793243680002135 H 0.0 **** 0.06
15633 H 49.47391401706551 131.784710752065 49.95104423042426 H 0.0 **** 0.06
15634 H 48.641126858019504 132.896042289974 51.064949362527074 H 0.0 **** 0.06
15635 H 48.86293254340477 133.34878126010278 49.357060132096365 H 0.0 **** 0.06
15636 C 12.038148188052318 20.759672641432644 135.27866340118265 C 0.0 **** -0.24
15637 H 12.071013014003569 21.371833728080276 134.3784391613128 H 0.0 **** 0.06
15638 H 12.278134171083039 21.37543191988823 136.1458665681791 H 0.0 **** 0.06
15639 H 12.764446626768546 19.95162016431061 135.19431407130878 H 0.0 **** 0.06
15640 H 11.038823733807163 20.339692444869 135.39701193265103 H 0.0 **** 0.06
15641 C 79.6905114260874 29.056355433395566 117.26274579819798 C 0.0 **** -0.24
15642 H 80.55513950623552 28.792484053419884 117.87197502607643 H 0.0 **** 0.06
15643 H 78.84861743285501 28.418933611349985 117.53201139815394 H 0.0 **** 0.06
15644 H 79.9312296908395 28.916092551257066 116.20916614684478 H 0.0 **** 0.06
15645 H 79.42754458089763 30.099400900582737 117.4397137838811 H 0.0 **** 0.06
15646 C 114.42942936931769 119.31974853398492 47.85394715962727 C 0.0 **** -0.24
15647 H 114.91260013587532 118.40368057603953 47.514795942581756 H 0.0 **** 0.06
15648 H 115.0621538703501 119.81114149964677 48.59301259472369 H 0.0 **** 0.06
15649 H 113.46642477663829 119.07806776279998 48.303695555120925 H 0.0 **** 0.06
15650 H 114.27744017186717 119.98567855139599 47.00436280865367 H 0.0 **** 0.06
15651 C 75.36828100045997 77.66762447263396 21.900851602715115 C 0.0 **** -0.24
15652 H 76.15672236876063 78.29041175920489 22.323591796467056 H 0.0 **** 0.06
15653 H 74.41478960111192 78.19378424205334 21.969227249192294 H 0.0 **** 0.06
15654 H 75.3078768994518 76.73227491480145 22.455919655083825 H 0.0 **** 0.06
15655 H 75.59238150773069 77.45735802719187 20.855703295264327 H 0.0 **** 0.06
15656 C 79.64480256617502 65.7661973598614 28.94765866185456 C 0.0 **** -0.24
15657 H 80.62524248222945 65.74629428441352 29.421462851274157 H 0.0 **** 0.06
15658 H 79.6586364464169 66.46776126345583 28.113214055186745 H 0.0 **** 0.06
15659 H 78.89609721080721 66.08212303303634 29.674467677835793 H 0.0 **** 0.06
15660 H 79.39735667012832 64.76981532785038 28.58133306728726 H 0.0 **** 0.06
15661 C 51.11494173586112 18.59303334492202 125.57516858259805 C 0.0 **** -0.24
15662 H 52.072529747614595 18.699745300790056 125.06587318358021 H 0.0 **** 0.06
15663 H 50.388759636702716 18.148774200712978 124.893763067485 H 0.0 **** 0.06
15664 H 50.76202980950043 19.572860426303293 125.89516244780108 H 0.0 **** 0.06
15665 H 51.237250134542336 17.94805439485276 126.44614328872132 H 0.0 **** 0.06
15666 C 55.34118582742012 71.20906910260288 116.21361774489594 C 0.0 **** -0.24
15667 H 54.42331267937428 71.61803393350942 115.79211248877505 H 0.0 **** 0.06
15668 H 55.09519210364692 70.5356132927086 117.0347050899519 H 0.0 **** 0.06
15669 H 55.96438664268749 72.02366313782477 116.58434462919172 H 0.0 **** 0.06
15670 H 55.88204718813998 70.66157935841676 115.44184833558634 H 0.0 **** 0.06
15671 C 136.82303333256007 108.91885545377679 65.56024601519366 C 0.0 **** -0.24
15672 H 136.74944179304805 109.90283772254756 66.02416872111121 H 0.0 **** 0.06
15673 H 136.90137669497847 109.03353331332606 64.47939387849055 H 0.0 **** 0.06
15674 H 135.9345310638766 108.33675908196466 65.80129894391308 H 0.0 **** 0.06
15675 H 137.70798673505357 108.40574877871856 65.93689848880581 H 0.0 **** 0.06
15676 C 62.25692023573447 72.94008490060938 131.91192826434198 C 0.0 **** -0.24
15677 H 61.88067134248752 72.99994576779127 132.93391191295368 H 0.0 **** 0.06
15678 H 63.152450639556605 72.31888141085221 131.8903738522503 H 0.0 **** 0.06
15679 H 62.500166816195474 73.94112078487271 131.5549754004166 H 0.0 **** 0.06
15680 H 61.49318849995393 72.50087350946438 131.26997479210368 H 0.0 **** 0.06
15681 C 96.03275476517712 6.3568664185633565 27.9967821170509 C 0.0 **** -0.24
15682 H 96.75108145049671 6.162212534154747 28.79279573084534 H 0.0 **** 0.06
15683 H 95.24632090739863 7.013651188544571 28.36940611316797 H 0.0 **** 0.06
15684 H 95.59390393834673 5.415672322799594 27.664805140609815 H 0.0 **** 0.06
15685 H 96.540904689061 6.835562266859625 27.159454809978044 H 0.0 **** 0.06
15686 C 17.49120488928628 65.50166628303383 130.24802601167877 C 0.0 **** -0.24
15687 H 16.787335103049656 66.05534591277139 129.62552274385942 H 0.0 **** 0.06
15688 H 18.412519749847604 66.07617538140627 130.35175333090984 H 0.0 **** 0.06
15689 H 17.711781439771187 64.54197817171914 129.78235047830967 H 0.0 **** 0.06
15690 H 17.053321794527335 65.33685082839652 131.23184421790916 H 0.0 **** 0.06
15691 C 29.73693284155857 22.82401541559426 113.93877308991347 C 0.0 **** -0.24
15692 H 29.010090680392892 23.613735662696683 114.12759693160217 H 0.0 **** 0.06
15693 H 30.04934665354608 22.383687311970192 114.8858844096776 H 0.0 **** 0.06
15694 H 30.605565531056044 23.24354952138947 113.4297215020741 H 0.0 **** 0.06
15695 H 29.284853954202617 22.05617360843442 113.31133569947056 H 0.0 **** 0.06
15696 C 88.75841847120256 122.2161292242789 105.20732427144362 C 0.0 **** -0.24
15697 H 89.21070032225578 122.49434939472785 106.15933831271884 H 0.0 **** 0.06
15698 H 89.35812423673684 121.43829067096618 104.73447202249461 H 0.0 **** 0.06
15699 H 88.71606830225119 123.08946499762838 104.55643706551922 H 0.0 **** 0.06
15700 H 87.74876325802899 121.84249384148876 105.38128422992965 H 0.0 **** 0.06
15701 C 33.75353378839952 94.40529445174684 0.5772043819864265 C 0.0 **** -0.24
15702 H 33.503305138261055 94.2376755403233 -0.47155617276593986 H 0.0 **** 0.06
15703 H 33.23645254232122 93.66980354850224 1.1943633802596878 H 0.0 **** 0.06
15704 H 33.442919424968835 95.40879625612598 0.8683176146819065 H 0.0 **** 0.06
15705 H 34.83025282660125 94.3032608450498 0.7135874033191101 H 0.0 **** 0.06
15706 C 84.32691869665155 68.54330277709451 44.230766744708234 C 0.0 **** -0.24
15707 H 83.62633720655509 69.35888286559285 44.052938923727936 H 0.0 **** 0.06
15708 H 84.55725457326434 68.4891808047636 45.29450601311218 H 0.0 **** 0.06
15709 H 85.24308966375986 68.72241266439637 43.66841592009649 H 0.0 **** 0.06
15710 H 83.87893995348554 67.60351251229338 43.906783102170635 H 0.0 **** 0.06
15711 C 19.918710032483553 88.88866526253213 88.61250110328804 C 0.0 **** -0.24
15712 H 18.92864210580386 89.29052774389959 88.39613768492097 H 0.0 **** 0.06
15713 H 19.829377846757026 87.84396679693924 88.9105697931602 H 0.0 **** 0.06
15714 H 20.37288152806486 89.46002401381656 89.42258414309956 H 0.0 **** 0.06
15715 H 20.542757781571453 88.96170552188119 87.72218343057925 H 0.0 **** 0.06
15716 C 99.57877739397098 114.96552126209804 33.7625162607433 C 0.0 **** -0.24
15717 H 98.55041975249402 115.31621304976551 33.84944664213626 H 0.0 **** 0.06
15718 H 99.79944281867304 114.2808640127414 34.58203766233112 H 0.0 **** 0.06
15719 H 100.25720190117107 115.81780040243143 33.808063436044336 H 0.0 **** 0.06
15720 H 99.70791346459534 114.44834436011186 32.81243840676615 H 0.0 **** 0.06
15721 C 134.76966101709132 13.932100743171283 59.45358199226007 C 0.0 **** -0.24
15722 H 133.71542158113772 14.050116501661051 59.7042442308892 H 0.0 **** 0.06
15723 H 135.08837017067023 12.915699669340817 59.68661940087378 H 0.0 **** 0.06
15724 H 135.36212539469727 14.640689551516346 60.032713188505795 H 0.0 **** 0.06
15725 H 134.91369561372574 14.123620094899003 58.38970536015461 H 0.0 **** 0.06
15726 C 132.3535394362201 113.1061791651972 11.238402978864258 C 0.0 **** -0.24
15727 H 132.75847216684969 112.09534790596692 11.28229706914749 H 0.0 **** 0.06
15728 H 133.16925238098187 113.82755589186382 11.294945988914321 H 0.0 **** 0.06
15729 H 131.6720324422046 113.26186705093772 12.075059771218775 H 0.0 **** 0.06
15730 H 131.8143565661823 113.2406398946195 10.300590516031008 H 0.0 **** 0.06
15731 C 21.37592894588002 116.01195590030653 34.85653935253154 C 0.0 **** -0.24
15732 H 20.483927248507527 116.37314853534457 35.36774174310142 H 0.0 **** 0.06
15733 H 21.13437174390137 115.790887733148 33.81579771777817 H 0.0 **** 0.06
15734 H 21.734289552360167 115.10702489886117 35.347058070067305 H 0.0 **** 0.06
15735 H 22.15133000053811 116.7775441569855 34.894970097034246 H 0.0 **** 0.06
15736 C 28.93761035969709 101.08520151447375 113.78806907038481 C 0.0 **** -0.24
15737 H 29.786735079032738 100.43936060842704 113.56459246040905 H 0.0 **** 0.06
15738 H 29.024148662229464 102.00953205455029 113.21589139647918 H 0.0 **** 0.06
15739 H 28.927143675967912 101.31773224875174 114.85258771020139 H 0.0 **** 0.06
15740 H 28.01255513536765 100.5760665658275 113.51801076665964 H 0.0 **** 0.06
15741 C 104.44315354848707 54.4987510176319 34.69959768902143 C 0.0 **** -0.24
15742 H 104.34166174420645 54.41052558075543 35.780978620259845 H 0.0 **** 0.06
15743 H 104.82804570100386 53.56309651834127 34.293132704918946 H 0.0 **** 0.06
15744 H 105.13370547221561 55.30898429419962 34.46459096229563 H 0.0 **** 0.06
15745 H 103.46862050436256 54.7132032382073 34.25980603373631 H 0.0 **** 0.06
15746 C 45.06511714543106 103.38550028553607 79.27279212497979 C 0.0 **** -0.24
15747 H 46.09041447449226 103.31615598416829 78.90693709942167 H 0.0 **** 0.06
15748 H 44.60122331261289 102.39949895501053 79.2371133331659 H 0.0 **** 0.06
15749 H 44.50214701861401 104.07593570342671 78.64551580151272 H 0.0 **** 0.06
15750 H 45.07012891386745 103.74796205120825 80.30053596076561 H 0.0 **** 0.06
15751 C 125.80790959200829 109.54813964999116 91.05863520775853 C 0.0 **** -0.24
15752 H 126.06917738046502 108.49366177571636 91.14717680022494 H 0.0 **** 0.06
15753 H 126.08329136393348 110.0685106583366 91.97561662860835 H 0.0 **** 0.06
15754 H 124.73452947386846 109.64429630069762 90.89403842772776 H 0.0 **** 0.06
15755 H 126.34503837610089 109.98673402045463 90.2170558847709 H 0.0 **** 0.06
15756 C 74.48735252190815 12.78728554616265 89.61327057636055 C 0.0 **** -0.24
15757 H 73.92941201144622 12.030366337006882 90.16600906382845 H 0.0 **** 0.06
15758 H 75.47681730251688 12.401975029308051 89.36846803478652 H 0.0 **** 0.06
15759 H 74.58688180535465 13.683150333698961 90.22491851110979 H 0.0 **** 0.06
15760 H 73.95485850214293 13.031987974553651 88.6940883786326 H 0.0 **** 0.06
15761 C 135.8687867041453 58.83340466297996 75.55174673921815 C 0.0 **** -0.24
15762 H 135.22694799545093 59.14248336858019 76.3772444836797 H 0.0 **** 0.06
15763 H 135.67099600783263 59.46221337160132 74.68332832816117 H 0.0 **** 0.06
15764 H 135.66195864506682 57.79205182770065 75.30116626214738 H 0.0 **** 0.06
15765 H 136.91299748944806 58.93590023322341 75.84535789162922 H 0.0 **** 0.06
15766 C 49.0041367725957 98.40488572320692 52.2621480951497 C 0.0 **** -0.24
15767 H 50.094440724972685 98.38795051313284 52.258742751098 H 0.0 **** 0.06
15768 H 48.652198828438685 98.89500638385648 53.17033338423394 H 0.0 **** 0.06
15769 H 48.625442151214685 97.38339140780784 52.229348682320364 H 0.0 **** 0.06
15770 H 48.64682857420894 98.95374591913476 51.39050170727444 H 0.0 **** 0.06
15771 C 119.60126233870852 28.52205452753813 19.4338081658517 C 0.0 **** -0.24
15772 H 120.42050670353234 28.448152692509318 20.14901600508975 H 0.0 **** 0.06
15773 H 119.85962498746107 27.971707506881458 18.528673923075672 H 0.0 **** 0.06
15774 H 119.42938554032679 29.569862415988204 19.185370837475375 H 0.0 **** 0.06
15775 H 118.69784085482766 28.099027308293245 19.871549634012723 H 0.0 **** 0.06
15776 C 106.30142359900242 88.33730228464015 4.578925140747419 C 0.0 **** -0.24
15777 H 107.09987605839487 89.06712838533284 4.447591355653795 H 0.0 **** 0.06
15778 H 105.35003351823846 88.7824860711167 4.286489836823758 H 0.0 **** 0.06
15779 H 106.25393271526686 88.0351824912776 5.62587756544465 H 0.0 **** 0.06
15780 H 106.50107916630186 87.46461393578011 3.9580574354788567 H 0.0 **** 0.06
15781 C 100.16344829158777 54.259339656103236 33.86646285994209 C 0.0 **** -0.24
15782 H 100.21850619647381 55.329731859351455 34.06481411585651 H 0.0 **** 0.06
15783 H 101.03681835005419 53.95232273125845 33.289276142383244 H 0.0 **** 0.06
15784 H 99.25827531834845 54.04146671817614 33.29962043566269 H 0.0 **** 0.06
15785 H 100.14163109701357 53.71567255782867 34.81025261261652 H 0.0 **** 0.06
15786 C 117.83414872684739 78.57610993971701 90.46922834805349 C 0.0 **** -0.24
15787 H 117.38705220182356 77.77291319166599 91.05455280590218 H 0.0 **** 0.06
15788 H 117.53261955167142 79.5391666611772 90.8841657939762 H 0.0 **** 0.06
15789 H 117.49659122183354 78.50385831368337 89.43568122191698 H 0.0 **** 0.06
15790 H 118.91954753960167 78.48975566050098 90.50419055379791 H 0.0 **** 0.06
15791 C 124.79144142207133 13.944994702910186 124.6721771562031 C 0.0 **** -0.24
15792 H 123.769989013094 13.575030114646985 124.75832366496495 H 0.0 **** 0.06
15793 H 124.7730865431256 15.015213356067072 124.46681848398003 H 0.0 **** 0.06
15794 H 125.29856116717747 13.42697034503037 123.85866357024372 H 0.0 **** 0.06
15795 H 125.32366795749579 13.763418492683002 125.6069911215766 H 0.0 **** 0.06
15796 C 107.5330591478313 28.991097984082984 123.49074125466842 C 0.0 **** -0.24
15797 H 108.25542865381459 29.755702947374687 123.20345803379553 H 0.0 **** 0.06
15798 H 106.5435947125693 29.2738664268077 123.13113284139052 H 0.0 **** 0.06
15799 H 107.51243253978089 28.900509729394372 124.57673958310603 H 0.0 **** 0.06
15800 H 107.82024494932597 28.036702034765597 123.05156399872389 H 0.0 **** 0.06
15801 C 96.9579728371522 136.01433037284488 11.155993487234241 C 0.0 **** -0.24
15802 H 97.64636795974654 135.60857303172227 10.414310117325385 H 0.0 **** 0.06
15803 H 96.84894506187105 135.30440427068623 11.976812594075113 H 0.0 **** 0.06
15804 H 95.98711628451417 136.18795987417823 10.693982315855408 H 0.0 **** 0.06
15805 H 97.35218584696781 136.95563053440895 11.538983267656135 H 0.0 **** 0.06
15806 C 60.47346431110009 116.66871997469946 126.95125189159421 C 0.0 **** -0.24
15807 H 60.63562056030901 117.73123631179317 126.76949256181439 H 0.0 **** 0.06
15808 H 60.72918158227944 116.10421897038833 126.05458230158095 H 0.0 **** 0.06
15809 H 59.42532475956642 116.49867798591674 127.20136057871136 H 0.0 **** 0.06
15810 H 61.102154803320786 116.34178980469883 127.77891664697125 H 0.0 **** 0.06
15811 C 121.82174776596389 118.1073131663999 67.66484035582988 C 0.0 **** -0.24
15812 H 121.47099354787497 118.40162790324368 68.65402253184423 H 0.0 **** 0.06
15813 H 121.39638390259151 117.13876803147733 67.40236757990526 H 0.0 **** 0.06
15814 H 122.90896910556624 118.0381467729627 67.67047713494321 H 0.0 **** 0.06
15815 H 121.50906297673482 118.8525619316365 66.93275729415907 H 0.0 **** 0.06
15816 C 76.92582248703619 111.43853559886608 59.88242868279582 C 0.0 **** -0.24
15817 H 75.85977684241082 111.63521444317135 59.76748439624464 H 0.0 **** 0.06
15818 H 77.14035124933547 111.20054546562304 60.92435294882978 H 0.0 **** 0.06
15819 H 77.492334258453 112.32158435161287 59.58679821205902 H 0.0 **** 0.06
15820 H 77.21082759794561 110.59679813505679 59.251079174049835 H 0.0 **** 0.06
15821 C 36.99110467033221 47.81559025969918 50.341842084551274 C 0.0 **** -0.24
15822 H 36.50674415812741 48.6819437537751 50.79157038937461 H 0.0 **** 0.06
15823 H 36.23581101589784 47.079243892179605 50.06479579609936 H 0.0 **** 0.06
15824 H 37.68435147158794 47.374321598086865 51.0584807234178 H 0.0 **** 0.06
15825 H 37.53853935468422 48.12748310627673 49.45178240685618 H 0.0 **** 0.06
15826 C 48.04449468898315 61.067462815053716 132.27798750450268 C 0.0 **** -0.24
15827 H 47.84246745046195 62.03123045645873 131.81261463939472 H 0.0 **** 0.06
15828 H 47.97878053798371 61.16691897639072 133.36149070624884 H 0.0 **** 0.06
15829 H 49.044332410321374 60.73269991253869 132.00321059107068 H 0.0 **** 0.06
15830 H 47.310347285949604 60.33705488366161 131.93563537727027 H 0.0 **** 0.06
15831 C 21.233532179681788 55.71733186505705 56.15741976849782 C 0.0 **** -0.24
15832 H 22.294537843552945 55.53222917335228 56.32884933422184 H 0.0 **** 0.06
15833 H 21.042195810587984 55.761316116526416 55.085132562320595 H 0.0 **** 0.06
15834 H 20.95141160652784 56.66434521460235 56.61655234124403 H 0.0 **** 0.06
15835 H 20.64875423565104 54.91034327728744 56.5987883588858 H 0.0 **** 0.06
15836 C 117.20358886526105 45.454222670663285 58.283725498504566 C 0.0 **** -0.24
15837 H 116.58803603350836 44.73371938358059 58.82352717259889 H 0.0 **** 0.06
15838 H 117.69674487264388 44.95678589332104 57.44870103302162 H 0.0 **** 0.06
15839 H 117.95547253898874 45.86603772248549 58.957431961663445 H 0.0 **** 0.06
15840 H 116.57307039390841 46.25912551689879 57.907097182093935 H 0.0 **** 0.06
15841 C 82.55921512686902 91.38551448165904 116.9033937584075 C 0.0 **** -0.24
15842 H 83.03128966286336 91.07739478674432 115.97009210176503 H 0.0 **** 0.06
15843 H 82.86044642547857 90.70955471355845 117.70301999007503 H 0.0 **** 0.06
15844 H 81.47521148704057 91.35510773216777 116.78913246175176 H 0.0 **** 0.06
15845 H 82.86975681759972 92.40108773302057 117.1483649382229 H 0.0 **** 0.06
15846 C 34.58876446138379 121.48316484837763 15.39474707663345 C 0.0 **** -0.24
15847 H 35.60891152242476 121.6118076015773 15.033870298564665 H 0.0 **** 0.06
15848 H 34.17323192209827 120.56063049459749 14.987571189750895 H 0.0 **** 0.06
15849 H 33.98053641189615 122.3288701695333 15.07365173442767 H 0.0 **** 0.06
15850 H 34.592916377620796 121.43041235965903 16.482984619686647 H 0.0 **** 0.06
15851 C 48.52167281237041 101.94638562927649 17.23720385428112 C 0.0 **** -0.24
15852 H 47.718560539723796 102.66571107336378 17.40033168086852 H 0.0 **** 0.06
15853 H 48.280907589992864 101.01198867877375 17.745477962360496 H 0.0 **** 0.06
15854 H 49.45344972591775 102.34785946601478 17.634198252571082 H 0.0 **** 0.06
15855 H 48.630857154408886 101.76054639733636 16.168384573490712 H 0.0 **** 0.06
15856 C 92.39511318531157 83.79397074072517 74.67910439827466 C 0.0 **** -0.24
15857 H 91.98177463302983 84.57928382623965 74.04683022890899 H 0.0 **** 0.06
15858 H 91.8099569424576 83.72090122819623 75.59564903203167 H 0.0 **** 0.06
15859 H 93.42887551048568 84.0339980245501 74.92611124487644 H 0.0 **** 0.06
15860 H 92.36020798034718 82.84374762772234 74.14700507902592 H 0.0 **** 0.06
15861 C 9.26738464678936 127.69106474691034 109.91052846514458 C 0.0 **** -0.24
15862 H 10.295925977221799 127.62029518279046 110.26546859903522 H 0.0 **** 0.06
15863 H 8.954034825936105 126.72710256342776 109.51111663931846 H 0.0 **** 0.06
15864 H 9.205453159809007 128.4474011371189 109.12831314896421 H 0.0 **** 0.06
15865 H 8.616298425074937 127.97111417836423 110.73845605612249 H 0.0 **** 0.06
15866 C 14.436203760709759 82.19217147718601 32.345332227337316 C 0.0 **** -0.24
15867 H 13.972017921324877 81.72185157247475 31.47812591737685 H 0.0 **** 0.06
15868 H 14.78740590502531 81.4209321225387 33.03088818804676 H 0.0 **** 0.06
15869 H 13.704685767216205 82.82216731918244 32.850638759205566 H 0.0 **** 0.06
15870 H 15.278896787172414 82.80138046758803 32.019630068767015 H 0.0 **** 0.06
15871 C 6.34644758747649 36.025615487544286 21.003544527710034 C 0.0 **** -0.24
15872 H 5.93150341304737 36.76153410194124 20.31387631259355 H 0.0 **** 0.06
15873 H 6.758162345167079 36.535957013695565 21.87461488968188 H 0.0 **** 0.06
15874 H 7.136353909982393 35.46488223237702 20.502677945839224 H 0.0 **** 0.06
15875 H 5.55945489888342 35.340762240656886 21.32090023701562 H 0.0 **** 0.06
15876 C 45.26959454901578 81.52183093316386 32.80059303764591 C 0.0 **** -0.24
15877 H 45.33386194063161 80.79779641101925 31.988515601586187 H 0.0 **** 0.06
15878 H 45.167130447952104 80.99450262183643 33.74919729486834 H 0.0 **** 0.06
15879 H 44.402022810497215 82.1641845008869 32.645614682061534 H 0.0 **** 0.06
15880 H 46.173830945326586 82.12961932897578 32.81796636705292 H 0.0 **** 0.06
15881 C 33.07451115981763 87.98649394217531 14.93154651407211 C 0.0 **** -0.24
15882 H 32.57053910731503 87.55134838251163 14.068671920460815 H 0.0 **** 0.06
15883 H 32.35917867543472 88.56599159939478 15.51548313935011 H 0.0 **** 0.06
15884 H 33.87930409393127 88.63752373820984 14.590487005822958 H 0.0 **** 0.06
15885 H 33.48918564861978 87.18978560134133 15.549751161163762 H 0.0 **** 0.06
15886 C 104.32688127458175 53.67913898505712 55.659136825778745 C 0.0 **** -0.24
15887 H 103.84385064362777 53.61184472514404 56.633040246083056 H 0.0 **** 0.06
15888 H 103.89832903248202 52.934040744325586 54.98809383402114 H 0.0 **** 0.06
15889 H 105.3961572215635 53.496225206631564 55.769792168061 H 0.0 **** 0.06
15890 H 104.16957934804839 54.67496138487762 55.243480761787836 H 0.0 **** 0.06
15891 C 53.00932507906174 120.89596709687041 80.3623531973815 C 0.0 **** -0.24
15892 H 53.06112099879289 121.8101426750662 80.95387349775375 H 0.0 **** 0.06
15893 H 54.01901265613557 120.55992965504817 80.12340140210827 H 0.0 **** 0.06
15894 H 52.46132228016373 121.08926132296182 79.44025812182086 H 0.0 **** 0.06
15895 H 52.49506301990624 120.12320338183389 80.93463973856662 H 0.0 **** 0.06
15896 C 55.81557188798665 89.20855656722836 86.96299549983223 C 0.0 **** -0.24
15897 H 56.184349304931445 88.24708596070849 86.6034101461891 H 0.0 **** 0.06
15898 H 56.48949881971578 89.59116094290653 87.72957977404468 H 0.0 **** 0.06
15899 H 54.81888142051632 89.08002139588581 87.3850237925547 H 0.0 **** 0.06
15900 H 55.770192559540135 89.91329474515823 86.13325768810085 H 0.0 **** 0.06
15901 C 90.51522710063684 34.09716096856306 56.344921122465095 C 0.0 **** -0.24
15902 H 89.71836034853027 34.22198452083498 55.61247421412418 H 0.0 **** 0.06
15903 H 91.27978326824358 33.433411816234326 55.940723140110606 H 0.0 **** 0.06
15904 H 90.10499957012603 33.66621607604924 57.25780222091042 H 0.0 **** 0.06
15905 H 90.95745786874609 35.06872253733458 56.568899246711595 H 0.0 **** 0.06
15906 C 63.982631726180955 121.40766717232988 95.28919905917476 C 0.0 **** -0.24
15907 H 64.29319512941622 122.41922018346085 95.55148889471 H 0.0 **** 0.06
15908 H 64.66177944958308 120.6893046441195 95.74773006522223 H 0.0 **** 0.06
15909 H 64.00478139125858 121.28973133065233 94.20597028524091 H 0.0 **** 0.06
15910 H 62.96960613725604 121.23365488283926 95.65305614345552 H 0.0 **** 0.06
15911 C 49.78849475399363 97.68521772401562 14.082510212657283 C 0.0 **** -0.24
15912 H 50.114877332991625 97.11105174367631 14.949010559223943 H 0.0 **** 0.06
15913 H 49.29793732741064 97.01987923897138 13.37118031067535 H 0.0 **** 0.06
15914 H 50.65248926266935 98.15072648206095 13.608590248633128 H 0.0 **** 0.06
15915 H 49.08829399484591 98.45752506563217 14.401193971163053 H 0.0 **** 0.06
15916 C 7.261958591517157 34.47200630288239 69.80904758404228 C 0.0 **** -0.24
15917 H 7.694698232284651 33.791995929418164 70.54201845830971 H 0.0 **** 0.06
15918 H 7.350587564112061 34.03719631509574 68.81362343985518 H 0.0 **** 0.06
15919 H 7.790820709804905 35.4240047550131 69.83912769624354 H 0.0 **** 0.06
15920 H 6.209107472333471 34.63431112771889 70.04235163584167 H 0.0 **** 0.06
15921 C 43.350827493462226 31.94062302918678 127.25448416921907 C 0.0 **** -0.24
15922 H 44.11808409745355 31.776449663120502 126.49766088341448 H 0.0 **** 0.06
15923 H 42.367324316821914 31.918743748990494 126.78596008019082 H 0.0 **** 0.06
15924 H 43.50875824064169 32.910453041504184 127.72580218004082 H 0.0 **** 0.06
15925 H 43.41226673721317 31.155071872261715 128.00882742284864 H 0.0 **** 0.06
15926 C 11.346591003678327 61.20272817231144 131.52983542699474 C 0.0 **** -0.24
15927 H 11.550845598819222 61.164922078774595 130.4600247894238 H 0.0 **** 0.06
15928 H 10.589238906112257 60.46052471018436 131.78128693963055 H 0.0 **** 0.06
15929 H 10.985681461264477 62.19590270732654 131.79599642864366 H 0.0 **** 0.06
15930 H 12.26191123577695 60.98915826876575 132.08169938219424 H 0.0 **** 0.06
15931 C 89.24757772659159 48.98715914582705 35.667272503441126 C 0.0 **** -0.24
15932 H 90.05340709130608 48.34523744649101 36.022782862328796 H 0.0 **** 0.06
15933 H 89.03262983005081 49.74813215373065 36.416823368175585 H 0.0 **** 0.06
15934 H 88.35515629254327 48.38559272895887 35.492739061158574 H 0.0 **** 0.06
15935 H 89.54927897292744 49.46748738255408 34.73630675741532 H 0.0 **** 0.06
15936 C 91.43149665296654 89.14398501864348 66.90059849514994 C 0.0 **** -0.24
15937 H 92.47088576322318 89.32796402976665 67.17478113647256 H 0.0 **** 0.06
15938 H 91.3965444693002 88.55500153431092 65.98356801220937 H 0.0 **** 0.06
15939 H 90.92432540976007 90.09506761414775 66.74103581618114 H 0.0 **** 0.06
15940 H 90.93556933190288 88.59754447262485 67.70273057716655 H 0.0 **** 0.06
15941 C 68.54345910368596 122.80751605488845 82.86390555838844 C 0.0 **** -0.24
15942 H 68.13215599286377 123.81292657918596 82.76978581284048 H 0.0 **** 0.06
15943 H 67.81915830803922 122.08380246787804 82.49008599791956 H 0.0 **** 0.06
15944 H 68.75721193361028 122.59949315572622 83.91183361760973 H 0.0 **** 0.06
15945 H 69.4630859325269 122.735804355353 82.28346695350602 H 0.0 **** 0.06
15946 C 128.52845595822828 22.770246381501693 117.46877810040112 C 0.0 **** -0.24
15947 H 129.26408471647534 21.97867932000645 117.3264194897668 H 0.0 **** 0.06
15948 H 127.92572373233799 22.55127214638958 118.35069150431633 H 0.0 **** 0.06
15949 H 127.88250279707819 22.827287344766717 116.59268683729002 H 0.0 **** 0.06
15950 H 129.04153919012327 23.721512647478562 117.60522255385234 H 0.0 **** 0.06
15951 C 91.22894909862666 125.40967623364563 8.560625095484568 C 0.0 **** -0.24
15952 H 90.56378858417827 126.14815220458152 8.112537142289852 H 0.0 **** 0.06
15953 H 91.17381124969735 125.48201847680063 9.645951954786483 H 0.0 **** 0.06
15954 H 92.25226147194485 125.59887246595517 8.2342699245836 H 0.0 **** 0.06
15955 H 90.926713391944 124.41089159662049 8.246294265589995 H 0.0 **** 0.06
15956 C 47.550903413948106 28.968239874003416 128.036847197675 C 0.0 **** -0.24
15957 H 47.44031607211059 28.805224745524384 126.96481568350879 H 0.0 **** 0.06
15958 H 47.79900229902539 28.02456559097189 128.5240483004705 H 0.0 **** 0.06
15959 H 46.61502409304778 29.351635551687764 128.4441182893006 H 0.0 **** 0.06
15960 H 48.34796401388341 29.689462808979897 128.2144644535761 H 0.0 **** 0.06
15961 C 33.49426128759255 116.79759283933856 7.710041394174922 C 0.0 **** -0.24
15962 H 33.971136293191314 116.8833198221329 8.686577204178196 H 0.0 **** 0.06
15963 H 34.1709746349774 116.29815840233536 7.017284356886712 H 0.0 **** 0.06
15964 H 33.257944331293686 117.79324916272304 7.33350602627165 H 0.0 **** 0.06
15965 H 32.576586227523315 116.21686019009024 7.80339628498729 H 0.0 **** 0.06
15966 C 131.84744981983263 102.03600119592525 1.0284729277349243 C 0.0 **** -0.24
15967 H 132.72041114351828 102.07249403840785 1.6808554099196726 H 0.0 **** 0.06
15968 H 131.0547107485272 102.6559822256726 1.4478133326317675 H 0.0 **** 0.06
15969 H 131.49856120456698 101.00638100629169 0.9463749175992575 H 0.0 **** 0.06
15970 H 132.11619328862832 102.40793348353552 0.04072432850631458 H 0.0 **** 0.06
15971 C 118.33318395139494 87.77274950808851 7.878320646211094 C 0.0 **** -0.24
15972 H 119.12529041849356 88.47735392455976 8.13111504712968 H 0.0 **** 0.06
15973 H 117.73532314800397 88.17583961111305 7.060972565739874 H 0.0 **** 0.06
15974 H 117.69643869049881 87.61463026348787 8.749998304196247 H 0.0 **** 0.06
15975 H 118.77432083616023 86.8236095725087 7.573185077346523 H 0.0 **** 0.06
15976 C 111.21956105751221 10.58417143184164 116.42149525539733 C 0.0 **** -0.24
15977 H 112.12482583203095 10.0321412684537 116.16982200610366 H 0.0 **** 0.06
15978 H 111.45792166165009 11.36219832755637 117.14749421228416 H 0.0 **** 0.06
15979 H 110.48490847144342 9.902047669627791 116.8482197171335 H 0.0 **** 0.06
15980 H 110.81024186229001 11.040859427055636 115.5196931755257 H 0.0 **** 0.06
15981 C 30.719959251253442 133.48676712427357 36.22977312286318 C 0.0 **** -0.24
15982 H 29.96533230285945 132.75385271222427 36.51486203159781 H 0.0 **** 0.06
15983 H 30.355182542310075 134.48980997821045 36.45392732840132 H 0.0 **** 0.06
15984 H 30.921616713475657 133.4027713759129 35.162110244464024 H 0.0 **** 0.06
15985 H 31.637220583755266 133.29846298251596 36.78841638768159 H 0.0 **** 0.06
15986 C 133.89496706045304 88.99286382218713 126.0351638898639 C 0.0 **** -0.24
15987 H 132.85822919296223 89.19388235561934 126.30421069400676 H 0.0 **** 0.06
15988 H 133.99796442489034 87.94775021105829 125.74246068666781 H 0.0 **** 0.06
15989 H 134.53763945253036 89.19535259967722 126.8929719307133 H 0.0 **** 0.06
15990 H 134.1857688341636 89.63414501696764 125.20342547184573 H 0.0 **** 0.06
15991 C 110.41446723489696 114.99034839325793 89.2416464610274 C 0.0 **** -0.24
15992 H 109.52044465056883 115.38727588905456 89.72410300070662 H 0.0 **** 0.06
15993 H 110.13346525279638 114.18093399351176 88.56701446489544 H 0.0 **** 0.06
15994 H 111.09742590176756 114.61007025065683 90.00082366209685 H 0.0 **** 0.06
15995 H 110.90375150096767 115.78321467209466 88.67644826207916 H 0.0 **** 0.06
15996 C 115.62575095897333 104.59991512298961 108.00719262092447 C 0.0 **** -0.24
15997 H 115.93529509989858 105.61940128682983 108.23682371426196 H 0.0 **** 0.06
15998 H 116.49450563896312 104.01799229377923 107.69755696155543 H 0.0 **** 0.06
15999 H 114.89210830614297 104.61544420200156 107.20041915482398 H 0.0 **** 0.06
16000 H 115.18209531918038 104.14668096152923 108.89298123737727 H 0.0 **** 0.06
16001 C 108.20076047124256 70.65487541985647 45.48327603617655 C 0.0 **** -0.24
16002 H 107.77202151400154 69.68961202651745 45.214676834692284 H 0.0 **** 0.06
16003 H 107.48595452546655 71.4457199454504 45.25249794063978 H 0.0 **** 0.06
16004 H 109.11713304844456 70.81552381777192 44.91570803648652 H 0.0 **** 0.06
16005 H 108.42598830502705 70.66771434921002 46.549628530376 H 0.0 **** 0.06
16006 C 95.69825206640166 56.7791191043616 62.7032058572301 C 0.0 **** -0.24
16007 H 94.74988538874794 57.306015068974034 62.607017166822686 H 0.0 **** 0.06
16008 H 95.51200267176034 55.70686611761562 62.7791324899066 H 0.0 **** 0.06
16009 H 96.21601439660907 57.12173117060166 63.59903630845264 H 0.0 **** 0.06
16010 H 96.31606453426667 56.97961145481213 61.827720479890445 H 0.0 **** 0.06
16011 C 79.48031941390624 72.2931847352678 66.4520376222901 C 0.0 **** -0.24
16012 H 78.63587035236483 72.98209205602483 66.4786752155159 H 0.0 **** 0.06
16013 H 80.15276258835819 72.57498886720255 65.64114446142179 H 0.0 **** 0.06
16014 H 79.11631077846683 71.27919018719395 66.28739006703553 H 0.0 **** 0.06
16015 H 80.01536485462441 72.33840246945095 67.40037657775913 H 0.0 **** 0.06
16016 C 93.0026842320463 9.130114406931327 106.45932941321969 C 0.0 **** -0.24
16017 H 92.11166883946852 9.311794649832692 107.05945512787554 H 0.0 **** 0.06
16018 H 93.75616180882155 9.883206767993897 106.69081054728805 H 0.0 **** 0.06
16019 H 92.74608631709101 9.186115073891727 105.40103902925208 H 0.0 **** 0.06
16020 H 93.39722115159026 8.139824522139008 106.68474587384063 H 0.0 **** 0.06
16021 C 22.502758409363054 25.822320551006328 125.5492307161507 C 0.0 **** -0.24
16022 H 22.44272601971238 24.921732515694828 126.16145406472793 H 0.0 **** 0.06
16023 H 23.528416069185994 26.19305451085262 125.55013552898095 H 0.0 **** 0.06
16024 H 21.84001185982703 26.584842244575952 125.95926458316023 H 0.0 **** 0.06
16025 H 22.201553086734407 25.588448715708466 124.52846661674118 H 0.0 **** 0.06
16026 C 127.39386457862872 122.77968892602924 86.9798492993329 C 0.0 **** -0.24
16027 H 127.46503686318144 122.98491794323834 85.91116006813391 H 0.0 **** 0.06
16028 H 128.19280201714463 123.30466879136137 87.50357649594886 H 0.0 **** 0.06
16029 H 127.48905819208525 121.70708334858473 87.15024746592206 H 0.0 **** 0.06
16030 H 126.42826956267203 123.12269171153406 87.35148947199224 H 0.0 **** 0.06
16031 C 73.39717036696257 133.77510484447163 96.51415116568694 C 0.0 **** -0.24
16032 H 73.89669121125132 133.39027454981414 97.40327918523116 H 0.0 **** 0.06
16033 H 72.9685530171792 134.752893289037 96.73398971424638 H 0.0 **** 0.06
16034 H 72.6050054879982 133.08797519739568 96.2169984970975 H 0.0 **** 0.06
16035 H 74.1210457219131 133.86866203352236 95.70428413381535 H 0.0 **** 0.06
16036 C 25.293163023867464 102.57504067783978 45.795052113037684 C 0.0 **** -0.24
16037 H 25.580607401127537 103.49438461087863 45.284357929711 H 0.0 **** 0.06
16038 H 24.2335866678564 102.38162487730375 45.62458691067825 H 0.0 **** 0.06
16039 H 25.4755720070479 102.68172269092605 46.86452627725396 H 0.0 **** 0.06
16040 H 25.881714878702496 101.74414825738839 45.40591387748891 H 0.0 **** 0.06
16041 C 128.628682910103 133.53501289780186 116.69433509494311 C 0.0 **** -0.24
16042 H 128.56007538771556 132.44718199143404 116.6953290869269 H 0.0 **** 0.06
16043 H 127.90483865787203 133.94371883890054 115.98855250714766 H 0.0 **** 0.06
16044 H 129.63318824873076 133.8354978921582 116.39868869967859 H 0.0 **** 0.06
16045 H 128.41561015653463 133.91268462861623 117.69461563069484 H 0.0 **** 0.06
16046 C 111.60971875641806 85.02884240475902 101.67340897073575 C 0.0 **** -0.24
16047 H 110.99279160846876 84.27595366699248 102.16455816469932 H 0.0 **** 0.06
16048 H 112.01394560287434 85.71093292240693 102.42178739952277 H 0.0 **** 0.06
16049 H 111.00226906635004 85.58889641325672 100.96209717732768 H 0.0 **** 0.06
16050 H 112.42954308069659 84.5401463349371 101.146450419664 H 0.0 **** 0.06
16051 C 116.41502903377082 30.069956082114373 66.80206629308492 C 0.0 **** -0.24
16052 H 115.7894670701848 30.041684400166787 65.90932498091854 H 0.0 **** 0.06
16053 H 117.4280165795505 29.761291373469817 66.54634313852739 H 0.0 **** 0.06
16054 H 116.0061001391197 29.393588755954937 67.55355582907055 H 0.0 **** 0.06
16055 H 116.43340302004799 31.085135956122855 67.19987068175357 H 0.0 **** 0.06
16056 C 76.39902861223351 42.63487947737741 59.77480569119541 C 0.0 **** -0.24
16057 H 75.56933692919387 42.862239719550814 60.443141707530344 H 0.0 **** 0.06
16058 H 76.93843283613637 43.55260776029883 59.53976961158776 H 0.0 **** 0.06
16059 H 76.01441640608721 42.19370258189173 58.85500816876544 H 0.0 **** 0.06
16060 H 77.0754981240332 41.93052654198084 60.26071935039903 H 0.0 **** 0.06
16061 C 89.18996368376946 11.985942951444258 90.41572885963893 C 0.0 **** -0.24
16062 H 90.01647988399628 11.845776135335711 91.11272908821925 H 0.0 **** 0.06
16063 H 89.14398554983359 13.032827761044302 90.11395689782347 H 0.0 **** 0.06
16064 H 88.25453162332576 11.704917111983718 90.8997902296835 H 0.0 **** 0.06
16065 H 89.34650924213923 11.360521686483992 89.53688542209949 H 0.0 **** 0.06
16066 C 25.980681605602825 88.14850363271648 101.79823649353142 C 0.0 **** -0.24
16067 H 25.72661623775442 87.0959143113401 101.92824661309125 H 0.0 **** 0.06
16068 H 27.041478804467026 88.2391876769531 101.56385905258738 H 0.0 **** 0.06
16069 H 25.763816212344828 88.69059112563042 102.71785083798514 H 0.0 **** 0.06
16070 H 25.390744039067194 88.56578597120892 100.98173774109732 H 0.0 **** 0.06
16071 C 23.280163298838374 106.6950518172467 46.54311064098823 C 0.0 **** -0.24
16072 H 23.37272453841331 106.42536736245295 45.49034720915755 H 0.0 **** 0.06
16073 H 22.269142409603205 107.05013946135581 46.73935927499724 H 0.0 **** 0.06
16074 H 23.995233149411547 107.48355168739046 46.77901348848121 H 0.0 **** 0.06
16075 H 23.48646597652521 105.82105645370999 47.16080584550829 H 0.0 **** 0.06
16076 C 18.154057376947264 56.90490755868578 17.995239076994835 C 0.0 **** -0.24
16077 H 17.62896213451981 56.84642787731613 18.949122832231296 H 0.0 **** 0.06
16078 H 17.4765849841758 57.28914186961953 17.23241456776077 H 0.0 **** 0.06
16079 H 18.49877726419473 55.91172809564689 17.70895639619107 H 0.0 **** 0.06
16080 H 19.009573701390792 57.5735209282672 18.091929571259186 H 0.0 **** 0.06
16081 C 102.11339545320368 25.682406935242632 41.93726267813872 C 0.0 **** -0.24
16082 H 102.31905455810374 24.63099294625345 41.73897760310882 H 0.0 **** 0.06
16083 H 102.97645452081598 26.282724492998696 41.649016345238465 H 0.0 **** 0.06
16084 H 101.9137634991077 25.819829872773695 43.000095257859186 H 0.0 **** 0.06
16085 H 101.24288336058217 25.99670970602292 41.36020583965592 H 0.0 **** 0.06
16086 C 46.60975702117287 85.20064399865595 83.3485165140744 C 0.0 **** -0.24
16087 H 46.33841689871167 84.22647653310497 83.75646429593584 H 0.0 **** 0.06
16088 H 47.46462019416356 85.08888985018598 82.68174517653469 H 0.0 **** 0.06
16089 H 46.86856094800868 85.87613712641968 84.16389533654836 H 0.0 **** 0.06
16090 H 45.764940581224664 85.60834675630014 82.79257249880303 H 0.0 **** 0.06
16091 C 35.34705949661213 35.01501988733742 132.04317478737414 C 0.0 **** -0.24
16092 H 34.61151591504074 34.5121062457507 132.67163290674952 H 0.0 **** 0.06
16093 H 35.68760510685547 34.33249188587595 131.26544140714455 H 0.0 **** 0.06
16094 H 36.19572373962944 35.32333836332744 132.6545787686746 H 0.0 **** 0.06
16095 H 34.89246450188375 35.89301357947927 131.58426790114967 H 0.0 **** 0.06
16096 C 10.668107180430468 122.07499680758968 58.59393992410301 C 0.0 **** -0.24
16097 H 11.11476983772775 123.02187607367944 58.89804551342043 H 0.0 **** 0.06
16098 H 9.969232509873734 121.74090169158785 59.36067240802383 H 0.0 **** 0.06
16099 H 11.451965248840281 121.32889175408673 58.46457676296009 H 0.0 **** 0.06
16100 H 10.135922710277896 122.21167708951492 57.65181290659605 H 0.0 **** 0.06
16101 C 30.461966097840858 57.41805038227662 108.36783639541378 C 0.0 **** -0.24
16102 H 30.586567402977053 58.48151144561237 108.16485333291602 H 0.0 **** 0.06
16103 H 30.577298814342043 57.23602328378426 109.43683808514045 H 0.0 **** 0.06
16104 H 31.215566965640477 56.85301439967998 107.8205603527636 H 0.0 **** 0.06
16105 H 29.468256469964416 57.10174801932142 108.05007379541416 H 0.0 **** 0.06
16106 C 66.84047088430185 55.42777109876931 127.80480747108061 C 0.0 **** -0.24
16107 H 66.98463928663523 55.10312096351976 126.77455565717182 H 0.0 **** 0.06
16108 H 66.90418496985643 56.5145656441924 127.85566194671333 H 0.0 **** 0.06
16109 H 67.61300645211395 54.98864572683698 128.43634114666838 H 0.0 **** 0.06
16110 H 65.85985909617247 55.104011866506255 128.1533150490603 H 0.0 **** 0.06
16111 C 23.941510134152452 121.91585386047456 104.4635419266942 C 0.0 **** -0.24
16112 H 23.104416893954436 122.03423154348161 105.15193114590639 H 0.0 **** 0.06
16113 H 23.77052886548661 121.04404727034644 103.83184678890206 H 0.0 **** 0.06
16114 H 24.862122773364547 121.77957826837942 105.03094512611443 H 0.0 **** 0.06
16115 H 24.02680513241134 122.80571275659419 103.83997479837556 H 0.0 **** 0.06
16116 C 132.66289758487576 135.4454947329183 60.71904829572915 C 0.0 **** -0.24
16117 H 131.58520284924703 135.38070379410652 60.56479099795625 H 0.0 **** 0.06
16118 H 133.17735031425516 135.14923632080178 59.80526420018808 H 0.0 **** 0.06
16119 H 132.95407386914684 134.781413935206 61.5325439025965 H 0.0 **** 0.06
16120 H 132.93207941168612 136.47033909420892 60.972818265592636 H 0.0 **** 0.06
16121 C 129.13742510273346 40.03060177409195 118.58730952472894 C 0.0 **** -0.24
16122 H 130.19323351540726 40.05785853780458 118.31641884320584 H 0.0 **** 0.06
16123 H 128.92416947478148 40.82923516955742 119.29786339477715 H 0.0 **** 0.06
16124 H 128.90469952045356 39.06775842620155 119.04056495623809 H 0.0 **** 0.06
16125 H 128.53001776321565 40.167601237665664 117.69171831707735 H 0.0 **** 0.06
16126 C 84.73088598902171 115.4925248758102 23.181825492900145 C 0.0 **** -0.24
16127 H 83.68981797605842 115.81051335448652 23.128761705221223 H 0.0 **** 0.06
16128 H 85.22837097473982 115.71696355680481 22.238763994995963 H 0.0 **** 0.06
16129 H 84.77321453093535 114.41920379447347 23.36914140139305 H 0.0 **** 0.06
16130 H 85.23032065283181 116.02235863603624 23.992771391572433 H 0.0 **** 0.06
16131 C 13.571315397110993 134.4416229960229 86.7010300804777 C 0.0 **** -0.24
16132 H 13.264641016348975 135.45521913486826 86.95875811863856 H 0.0 **** 0.06
16133 H 12.692455919907786 133.7994225843707 86.64632451577538 H 0.0 **** 0.06
16134 H 14.250785717530789 134.06342873016197 87.4651925425234 H 0.0 **** 0.06
16135 H 14.077628990447892 134.44916067588912 85.73539152184547 H 0.0 **** 0.06
16136 C 66.37751913415717 45.132125035958154 89.46947728377313 C 0.0 **** -0.24
16137 H 65.52450002421318 45.032796226426115 90.1414737816429 H 0.0 **** 0.06
16138 H 66.63251105104256 46.186025802429526 89.35947571157641 H 0.0 **** 0.06
16139 H 66.12068465434571 44.716154677477846 88.49492928485324 H 0.0 **** 0.06
16140 H 67.22955928495666 44.59262360539606 89.88155105282644 H 0.0 **** 0.06
16141 C 131.77695609695942 117.64315303276933 80.46596775358756 C 0.0 **** -0.24
16142 H 131.32205252995854 118.56629511708346 80.82477618167903 H 0.0 **** 0.06
16143 H 132.24277607179422 117.8207693005464 79.49664207276513 H 0.0 **** 0.06
16144 H 131.00967064915037 116.87506451097713 80.3658770244979 H 0.0 **** 0.06
16145 H 132.53332513693437 117.31048320247027 81.17657573540825 H 0.0 **** 0.06
16146 C 20.323899741286823 119.3950380585898 77.59186314571649 C 0.0 **** -0.24
16147 H 20.230081740665355 119.96813884276926 78.51351311728413 H 0.0 **** 0.06
16148 H 21.195465478917527 118.74349889086187 77.65569843775552 H 0.0 **** 0.06
16149 H 20.442314865199535 120.07855934625394 76.75035341436067 H 0.0 **** 0.06
16150 H 19.428461970699914 118.79128420802249 77.44624198519551 H 0.0 **** 0.06
16151 C 79.56517840200405 15.800850304330396 24.811350422142453 C 0.0 **** -0.24
16152 H 79.92349493325425 16.82203233314361 24.68203846952497 H 0.0 **** 0.06
16153 H 79.06461779680671 15.711706903001016 25.775751074528955 H 0.0 **** 0.06
16154 H 80.4092786680792 15.112753078639443 24.774121714568594 H 0.0 **** 0.06
16155 H 78.86307430423918 15.559038623134143 24.012855556174316 H 0.0 **** 0.06
16156 C 27.636582479073695 23.255345694729556 96.38574988407578 C 0.0 **** -0.24
16157 H 27.05375134888189 24.155668894117582 96.18986446521825 H 0.0 **** 0.06
16158 H 28.06020173330777 22.886990916154616 95.45028708687107 H 0.0 **** 0.06
16159 H 26.989681355757213 22.492119660953392 96.81712092192902 H 0.0 **** 0.06
16160 H 28.441340829146384 23.487744279544614 97.08330559044037 H 0.0 **** 0.06
16161 C 51.181883898486035 48.79979300864345 28.544150828654267 C 0.0 **** -0.24
16162 H 50.23945433343815 48.90104939754738 29.080898113069026 H 0.0 **** 0.06
16163 H 51.198111511003106 47.847136065616965 28.013837223973184 H 0.0 **** 0.06
16164 H 52.01014857303372 48.83610928183991 29.252498105873485 H 0.0 **** 0.06
16165 H 51.28099542952664 49.61629745354111 27.82775601231154 H 0.0 **** 0.06
16166 C 104.89024870665246 51.44058687732257 86.52588630152685 C 0.0 **** -0.24
16167 H 103.95427992423717 51.08520047598449 86.09579681153856 H 0.0 **** 0.06
16168 H 105.57071097557696 50.59966518897886 86.65991196430156 H 0.0 **** 0.06
16169 H 104.69204054077794 51.90687770609537 87.49106579586753 H 0.0 **** 0.06
16170 H 105.34234220285629 52.17099944275759 85.85528210115477 H 0.0 **** 0.06
16171 C 31.14299567719941 36.78007236264691 33.70163008177016 C 0.0 **** -0.24
16172 H 31.291735115222792 37.45773515479268 32.86040072900346 H 0.0 **** 0.06
16173 H 30.302377519643926 36.11974768118913 33.49141011955112 H 0.0 **** 0.06
16174 H 30.933956943662196 37.360409897952906 34.60115900634969 H 0.0 **** 0.06
16175 H 32.0431244560141 36.18591304960067 33.853432158935675 H 0.0 **** 0.06
16176 C 70.41485874554115 97.98460817887127 83.66569955598771 C 0.0 **** -0.24
16177 H 69.83447428202084 98.69345995605653 84.25723919698714 H 0.0 **** 0.06
16178 H 70.7673469351272 98.47294706824565 82.7570206897779 H 0.0 **** 0.06
16179 H 69.78856106580088 97.1326836055164 83.40150495618133 H 0.0 **** 0.06
16180 H 71.2694391230246 97.64029115294463 84.24800808128364 H 0.0 **** 0.06
16181 C 91.34266821714516 74.71900040198386 128.6692562272411 C 0.0 **** -0.24
16182 H 92.18567037336902 75.05461730386833 129.27167521221102 H 0.0 **** 0.06
16183 H 91.291097445802 75.3116260266259 127.75461832394384 H 0.0 **** 0.06
16184 H 90.41929892425355 74.84192228959131 129.23468207475761 H 0.0 **** 0.06
16185 H 91.47508628894258 73.6674572853185 128.41389842407528 H 0.0 **** 0.06
16186 C 22.497735019773877 11.299199052839455 99.52883332547796 C 0.0 **** -0.24
16187 H 22.910123756664944 12.17422707008561 99.02669235876874 H 0.0 **** 0.06
16188 H 23.284922712640935 10.798971914469941 100.09216304042953 H 0.0 **** 0.06
16189 H 22.089460054088498 10.613975097496354 98.78599838981917 H 0.0 **** 0.06
16190 H 21.705174328813854 11.611713645579183 100.2090511298584 H 0.0 **** 0.06
16191 C 48.72801418848303 48.50590926438019 81.20522200632882 C 0.0 **** -0.24
16192 H 48.77497296036731 49.31106844953277 81.9375317496254 H 0.0 **** 0.06
16193 H 48.08807029195745 47.70794742752241 81.58183026193197 H 0.0 **** 0.06
16194 H 49.73120320802144 48.11526109086964 81.03096668876549 H 0.0 **** 0.06
16195 H 48.31935429856878 48.88875697271092 80.27005689323033 H 0.0 **** 0.06
16196 C 132.54230981864976 106.60567078845139 89.16274551706572 C 0.0 **** -0.24
16197 H 132.0954710395403 105.91566534831605 89.87970907193618 H 0.0 **** 0.06
16198 H 133.57128003042988 106.30502141932863 88.9639331696716 H 0.0 **** 0.06
16199 H 132.53066096072433 107.61449235378393 89.57403539650372 H 0.0 **** 0.06
16200 H 131.97154041176714 106.58449374727451 88.23466693546825 H 0.0 **** 0.06
16201 C 63.90143823880631 126.9087012868886 124.71426929785495 C 0.0 **** -0.24
16202 H 63.40236475633587 127.2246372543556 125.63133051080652 H 0.0 **** 0.06
16203 H 63.750333667710734 125.83938019996648 124.56880503142816 H 0.0 **** 0.06
16204 H 64.96861987401901 127.11741545823384 124.79228745971307 H 0.0 **** 0.06
16205 H 63.48411436405847 127.45474437959508 123.86812049591948 H 0.0 **** 0.06
16206 C 121.8799244085721 102.6814665900095 23.54074903474998 C 0.0 **** -0.24
16207 H 120.8063555366079 102.87023367483769 23.574719373347364 H 0.0 **** 0.06
16208 H 122.23937494957585 102.80964920896423 22.52020822617345 H 0.0 **** 0.06
16209 H 122.07875072334673 101.66169093817521 23.87158255248039 H 0.0 **** 0.06
16210 H 122.39281198915381 103.382821769869 24.19849995981599 H 0.0 **** 0.06
16211 C 13.857567596033533 117.23248312890115 122.24221493545772 C 0.0 **** -0.24
16212 H 13.70739147271263 116.3072906050484 121.68514490144129 H 0.0 **** 0.06
16213 H 13.147209523826362 117.27867089541883 123.06737076265114 H 0.0 **** 0.06
16214 H 13.70162713828239 118.08413469562109 121.5797851202455 H 0.0 **** 0.06
16215 H 14.87408787445591 117.25860934145442 122.63443935345896 H 0.0 **** 0.06
16216 C 1.7799222357211306 45.87697875087606 25.57393728147286 C 0.0 **** -0.24
16217 H 1.6583695147583057 46.69143682670385 24.860551697674396 H 0.0 **** 0.06
16218 H 1.0504245151651617 45.98494489397535 26.37660374349045 H 0.0 **** 0.06
16219 H 2.785896520984977 45.908333434024684 25.991842366814197 H 0.0 **** 0.06
16220 H 1.626055100564031 44.92448676589567 25.068243779999555 H 0.0 **** 0.06
16221 C 62.9128934838719 16.035007471074287 47.74070178244551 C 0.0 **** -0.24
16222 H 62.5826759957819 15.618338266916766 46.788621799695505 H 0.0 **** 0.06
16223 H 63.67571468111424 15.388340063543495 48.17409898815245 H 0.0 **** 0.06
16224 H 62.06463496542325 16.103286350044044 48.42111672875052 H 0.0 **** 0.06
16225 H 63.32810159183805 17.028748184221783 47.57695313222675 H 0.0 **** 0.06
16226 C 22.486344757848748 130.74192750041254 35.41482252318809 C 0.0 **** -0.24
16227 H 22.8064378834574 129.86272778296296 35.97526821793639 H 0.0 **** 0.06
16228 H 21.99185984076665 130.42613560624943 34.49541985031675 H 0.0 **** 0.06
16229 H 23.35512156592553 131.35179240432558 35.16935222801561 H 0.0 **** 0.06
16230 H 21.791899218750217 131.32462956337332 36.01890670320745 H 0.0 **** 0.06
16231 C 60.87803841756643 58.75468154894216 12.790640645578009 C 0.0 **** -0.24
16232 H 61.217580241176464 58.391844851817496 13.761169356350138 H 0.0 **** 0.06
16233 H 59.845420881332245 58.44284275803376 12.628968980427516 H 0.0 **** 0.06
16234 H 61.51059832747981 58.33917696618603 12.0056693062985 H 0.0 **** 0.06
16235 H 60.93755254294098 59.84242512009081 12.768190393566329 H 0.0 **** 0.06
16236 C 67.86086762373274 127.53579291096457 39.7653840944281 C 0.0 **** -0.24
16237 H 68.1444510432747 126.66022857099944 39.18163022624074 H 0.0 **** 0.06
16238 H 67.98951967240961 128.43303741823428 39.15898400964309 H 0.0 **** 0.06
16239 H 68.49370041646677 127.60159365826075 40.65076650223824 H 0.0 **** 0.06
16240 H 66.8179672017399 127.44827558930797 40.06960848284663 H 0.0 **** 0.06
16241 C 33.787461790719334 26.17473656838522 19.653111491197677 C 0.0 **** -0.24
16242 H 33.09836608581091 25.37029014637092 19.397281284714097 H 0.0 **** 0.06
16243 H 33.428513229318014 27.110000151420365 19.223728195681474 H 0.0 **** 0.06
16244 H 34.77563446418111 25.946772681608124 19.253962045085444 H 0.0 **** 0.06
16245 H 33.84649791847539 26.271333750854325 20.7374812659055 H 0.0 **** 0.06
16246 C 2.8109751322472682 46.896316510213595 102.3129807999378 C 0.0 **** -0.24
16247 H 2.3246462906978493 45.99356757281116 101.9433368144525 H 0.0 **** 0.06
16248 H 3.7586380854735957 46.63187636755214 102.7831780406184 H 0.0 **** 0.06
16249 H 2.165190320223079 47.382587455184364 103.0447024984689 H 0.0 **** 0.06
16250 H 2.994471171761301 47.577015165304886 101.4809070862886 H 0.0 **** 0.06
16251 C 51.921976405769016 50.87344760775362 43.75396723297462 C 0.0 **** -0.24
16252 H 51.788065083882785 51.95086030731166 43.654459846199 H 0.0 **** 0.06
16253 H 52.691039088852364 50.53766852662439 43.05776245185203 H 0.0 **** 0.06
16254 H 50.98201441325759 50.36935967873305 43.52890972317911 H 0.0 **** 0.06
16255 H 52.22592624696907 50.637638256301116 44.773238762157234 H 0.0 **** 0.06
16256 C 37.38265561397222 31.716789869168714 33.027553880171 C 0.0 **** -0.24
16257 H 38.21483960258777 31.20623481204627 32.544356882580935 H 0.0 **** 0.06
16258 H 37.61452578856063 32.77755660102297 33.12505897165781 H 0.0 **** 0.06
16259 H 37.217415902041836 31.288327543784973 34.0155983576424 H 0.0 **** 0.06
16260 H 36.483219597923124 31.595686178329863 32.42315264727618 H 0.0 **** 0.06
16261 C 66.51054064550614 22.922196700580002 49.49579597898996 C 0.0 **** -0.24
16262 H 66.66456930363354 23.084822218693702 48.428554570057074 H 0.0 **** 0.06
16263 H 66.31914990605729 21.86427233772332 49.677833693435005 H 0.0 **** 0.06
16264 H 65.65689040198468 23.510605584220663 49.831896113149895 H 0.0 **** 0.06
16265 H 67.40237775692736 23.2295858836545 50.04224042756894 H 0.0 **** 0.06
16266 C 125.41567861701759 19.339355571556325 22.826335079164323 C 0.0 **** -0.24
16267 H 126.07783669972042 18.65124531978769 23.352205818690663 H 0.0 **** 0.06
16268 H 125.93642519331388 19.756458163991937 21.964162526474126 H 0.0 **** 0.06
16269 H 125.1217877023247 20.144810758831383 23.498083583732978 H 0.0 **** 0.06
16270 H 124.52717765292164 18.803314551182126 22.490443441286175 H 0.0 **** 0.06
16271 C 74.69342838007785 105.7970849886427 46.99344431173027 C 0.0 **** -0.24
16272 H 75.2378247359674 105.54083999045947 47.90222160089502 H 0.0 **** 0.06
16273 H 75.38178917229303 106.23149983396915 46.26834277797573 H 0.0 **** 0.06
16274 H 73.91076477876841 106.51894893307811 47.23061783073757 H 0.0 **** 0.06
16275 H 74.24183212061493 104.8979470369012 46.57398771723159 H 0.0 **** 0.06
16276 C 95.50516639620409 13.973135134416758 52.60412905289667 C 0.0 **** -0.24
16277 H 95.49796587946716 14.122555398970235 53.68389514185111 H 0.0 **** 0.06
16278 H 95.82847390528485 12.955744109457385 52.38052921260203 H 0.0 **** 0.06
16279 H 96.19341908898645 14.68256342405364 52.143738095762956 H 0.0 **** 0.06
16280 H 94.5016236733859 14.131366532678044 52.208839408186066 H 0.0 **** 0.06
16281 C 113.31978905355842 106.80445601424202 44.189968261568936 C 0.0 **** -0.24
16282 H 113.55079801245364 105.80287946850518 43.82566976001311 H 0.0 **** 0.06
16283 H 113.28138193549827 106.79530900487413 45.278697443303884 H 0.0 **** 0.06
16284 H 112.35444661587707 107.12144706179873 43.79425655434005 H 0.0 **** 0.06
16285 H 114.09371558390285 107.49805452788894 43.859358299696 H 0.0 **** 0.06
16286 C 34.85653654965452 106.31984907189442 86.18425909166533 C 0.0 **** -0.24
16287 H 33.92384468834922 105.76080256748186 86.25351889114984 H 0.0 **** 0.06
16288 H 34.94296512443523 106.76053376993994 85.19053870397494 H 0.0 **** 0.06
16289 H 35.697267650006495 105.64807466069665 86.35995331408424 H 0.0 **** 0.06
16290 H 34.860603621179564 107.11127493756698 86.93450549964973 H 0.0 **** 0.06
16291 C 7.589812893112679 106.68278675674819 58.132491522166674 C 0.0 **** -0.24
16292 H 6.948954899515144 106.40025274743428 58.967739168245885 H 0.0 **** 0.06
16293 H 7.78285082528771 105.80792580534654 57.5118775353659 H 0.0 **** 0.06
16294 H 8.532116856957629 107.07319163384535 58.51437271402028 H 0.0 **** 0.06
16295 H 7.093624593113759 107.44866158838032 57.53689942432817 H 0.0 **** 0.06
16296 C 26.759158191980816 58.00109384597613 115.70527791377913 C 0.0 **** -0.24
16297 H 26.7430472956774 57.921839068262216 116.79260960873188 H 0.0 **** 0.06
16298 H 27.704915316365827 57.613439417452355 115.32610303819092 H 0.0 **** 0.06
16299 H 26.652098451666518 59.04619012039663 115.4159804585316 H 0.0 **** 0.06
16300 H 25.935202896573742 57.42190248637124 115.28787388334146 H 0.0 **** 0.06
16301 C 73.63788695937487 39.938066377822736 84.92306980064538 C 0.0 **** -0.24
16302 H 73.66573094147151 40.50066563059352 85.85672492815502 H 0.0 **** 0.06
16303 H 74.09639464720112 38.96069425114524 85.0744616830973 H 0.0 **** 0.06
16304 H 74.18490915383495 40.4823213924891 84.15388307888065 H 0.0 **** 0.06
16305 H 72.60140483705362 39.8079210509253 84.60918424422408 H 0.0 **** 0.06
16306 C 76.6283978607164 13.098885140839798 56.95623105833596 C 0.0 **** -0.24
16307 H 77.57830699000482 12.935511185550752 57.46589633078662 H 0.0 **** 0.06
16308 H 76.59459736140803 14.118058327171696 56.569285748274666 H 0.0 **** 0.06
16309 H 75.80901919906034 12.949190137652806 57.65941743764327 H 0.0 **** 0.06
16310 H 76.53276273132684 12.39233644542918 56.131591174431406 H 0.0 **** 0.06
16311 C 54.11464083342413 44.15190409956659 13.226850314112085 C 0.0 **** -0.24
16312 H 54.283630082616 43.17113004374673 12.783456697526447 H 0.0 **** 0.06
16313 H 53.07604690598674 44.23133006852325 13.550299384037345 H 0.0 **** 0.06
16314 H 54.32646632611454 44.9260321853821 12.489229995066353 H 0.0 **** 0.06
16315 H 54.77306401269212 44.2802642249203 14.086227807854101 H 0.0 **** 0.06
16316 C 6.4657158979307106 108.31286322517718 118.19521114476836 C 0.0 **** -0.24
16317 H 7.1853440913412925 108.44193763068026 119.00280699642607 H 0.0 **** 0.06
16318 H 6.542148276845651 107.30005811357483 117.79832198245003 H 0.0 **** 0.06
16319 H 6.677031861484107 109.03074453861802 117.40222370523611 H 0.0 **** 0.06
16320 H 5.458199384748628 108.47952625002003 118.57634363466161 H 0.0 **** 0.06
16321 C 53.72391327723716 90.1713274405318 37.62835518468097 C 0.0 **** -0.24
16322 H 52.93789547646293 89.69445700360737 38.21329247334495 H 0.0 **** 0.06
16323 H 53.462698912668145 91.21481903463062 37.45083494731716 H 0.0 **** 0.06
16324 H 53.830374884922094 89.65509055463785 36.67412173358548 H 0.0 **** 0.06
16325 H 54.665226446110324 90.12036978095276 38.17578546172365 H 0.0 **** 0.06
16326 C 84.14017812647506 128.95962337949703 24.71740969442874 C 0.0 **** -0.24
16327 H 84.21172094971138 127.99631569174088 24.212260219399354 H 0.0 **** 0.06
16328 H 84.68688800073221 128.91701861029952 25.659085423705392 H 0.0 **** 0.06
16329 H 83.09302805354204 129.18858877160037 24.915335530995037 H 0.0 **** 0.06
16330 H 84.56858323460489 129.73573920467211 24.082699224350165 H 0.0 **** 0.06
16331 C 4.587133060012093 23.790242040126373 125.14797278950644 C 0.0 **** -0.24
16332 H 4.8227285131361555 22.890837875586016 125.71807019811521 H 0.0 **** 0.06
16333 H 3.888608787809119 24.40596164439168 125.715804926465 H 0.0 **** 0.06
16334 H 4.135239661959815 23.509261542227932 124.19769951869901 H 0.0 **** 0.06
16335 H 5.501952572521645 24.35353180438409 124.96379634350447 H 0.0 **** 0.06
16336 C 35.219063117827034 16.643059547023256 40.76737570574484 C 0.0 **** -0.24
16337 H 34.509576291655634 16.68369907688509 41.594020094871865 H 0.0 **** 0.06
16338 H 36.11537272899659 17.206026299216944 41.02896432903011 H 0.0 **** 0.06
16339 H 34.763625024293106 17.077497642835453 39.87687427710706 H 0.0 **** 0.06
16340 H 35.48677953909444 15.60525058232514 40.56857797235106 H 0.0 **** 0.06
16341 C 31.94262197910593 77.95179402293428 118.85802989758388 C 0.0 **** -0.24
16342 H 32.15249854705498 77.87365608826491 119.92501226601138 H 0.0 **** 0.06
16343 H 32.416977416573815 78.8483192221234 118.45928871288388 H 0.0 **** 0.06
16344 H 30.865079117427058 78.01019842421869 118.70318033550383 H 0.0 **** 0.06
16345 H 32.33644168817562 77.07338115954943 118.34497432096987 H 0.0 **** 0.06
16346 C 112.9695206088486 28.93265485526075 69.10268959385508 C 0.0 **** -0.24
16347 H 112.66510313626557 28.087408513212324 68.48493420964866 H 0.0 **** 0.06
16348 H 112.39072646764924 28.934155308912693 70.02695373719837 H 0.0 **** 0.06
16349 H 112.79168270407908 29.8609535149983 68.56053527778568 H 0.0 **** 0.06
16350 H 114.02985487812981 28.846953887104007 69.33792265200447 H 0.0 **** 0.06
16351 C 83.72811329201369 127.14291341287341 115.3540173245936 C 0.0 **** -0.24
16352 H 83.14842566542706 127.62173818841987 114.56365396574725 H 0.0 **** 0.06
16353 H 83.7171456334008 127.77139745499431 116.24478474833703 H 0.0 **** 0.06
16354 H 84.7553055744059 127.00533362742392 115.01738867818693 H 0.0 **** 0.06
16355 H 83.28895125833515 126.17267448080366 115.58782327258538 H 0.0 **** 0.06
16356 C 45.504881394740536 34.80987100314853 120.22278433480727 C 0.0 **** -0.24
16357 H 45.39798651295416 34.86206528069804 119.13864533604658 H 0.0 **** 0.06
16358 H 44.605999704375904 35.20513590920368 120.69526226313081 H 0.0 **** 0.06
16359 H 46.3676147575552 35.40068512550842 120.5309188659831 H 0.0 **** 0.06
16360 H 45.64894350488619 33.772265815909236 120.52356936433318 H 0.0 **** 0.06
16361 C 120.78792586779895 62.00640918822012 55.265924097812956 C 0.0 **** -0.24
16362 H 119.80077050203087 61.88842928844079 54.81840413714832 H 0.0 **** 0.06
16363 H 121.0516431425377 63.064122815879216 55.28886263496406 H 0.0 **** 0.06
16364 H 121.52277959573989 61.4618642535456 54.673411775847796 H 0.0 **** 0.06
16365 H 120.77453515263194 61.61258115461723 56.28151858682199 H 0.0 **** 0.06
16366 C 67.28207322484455 74.25929997077212 127.37150203041085 C 0.0 **** -0.24
16367 H 66.94501373992756 73.80808793010301 128.3050815347201 H 0.0 **** 0.06
16368 H 67.30574021770883 73.50014443876107 126.58941838179896 H 0.0 **** 0.06
16369 H 68.2821939942105 74.67205256446331 127.50830430163444 H 0.0 **** 0.06
16370 H 66.59625814605499 75.05624824161974 127.0851331003289 H 0.0 **** 0.06
16371 C 135.06158120380763 96.1541404652819 85.2953924708081 C 0.0 **** -0.24
16372 H 135.3942396096374 97.07621321834068 85.77086405952457 H 0.0 **** 0.06
16373 H 134.70336446382575 96.3734251855642 84.28923986289077 H 0.0 **** 0.06
16374 H 134.25523517623722 95.71424001304035 85.88140159354755 H 0.0 **** 0.06
16375 H 135.8942431391974 95.45317915068955 85.24048910665222 H 0.0 **** 0.06
16376 C 53.18653835733467 127.03931874069532 78.02581985656654 C 0.0 **** -0.24
16377 H 53.782501092798256 126.44646850164042 77.33204895253 H 0.0 **** 0.06
16378 H 53.81009919383321 127.81704777787238 78.46707432212332 H 0.0 **** 0.06
16379 H 52.7977700738912 126.39387458335918 78.81361687069926 H 0.0 **** 0.06
16380 H 52.3564285297731 127.50044188201302 77.49001745179946 H 0.0 **** 0.06
16381 C 36.35947284822033 55.149492828644185 15.035875079742056 C 0.0 **** -0.24
16382 H 37.047808351608715 55.917884791872524 15.387354911404714 H 0.0 **** 0.06
16383 H 36.81495177710366 54.16781946210614 15.165564717580082 H 0.0 **** 0.06
16384 H 36.142119894937 55.313924210423124 13.979978717892976 H 0.0 **** 0.06
16385 H 35.43453772475001 55.20064707020828 15.60943525619166 H 0.0 **** 0.06
16386 C 91.68698391631084 15.499991276115878 123.56367260395 C 0.0 **** -0.24
16387 H 92.29109730289092 15.829591921816196 124.40887286745792 H 0.0 **** 0.06
16388 H 90.69300342929729 15.943414253990461 123.63319942371658 H 0.0 **** 0.06
16389 H 91.60270641479669 14.413726476365802 123.5785760276598 H 0.0 **** 0.06
16390 H 92.16098589333885 15.814197003086917 122.63381995682802 H 0.0 **** 0.06
16391 C 4.941143422813639 27.229447583404465 83.54782896809269 C 0.0 **** -0.24
16392 H 5.977962508504987 26.949185627075934 83.36459022884196 H 0.0 **** 0.06
16393 H 4.512412098665209 26.565771049052472 84.29944856774557 H 0.0 **** 0.06
16394 H 4.3728478088316365 27.144438797848522 82.62120353316084 H 0.0 **** 0.06
16395 H 4.9013512752528925 28.25839485964096 83.9060735426225 H 0.0 **** 0.06
16396 C 63.7969735289592 3.3837753355232394 37.680853062968936 C 0.0 **** -0.24
16397 H 62.757106702363046 3.5702963456319594 37.41353315528124 H 0.0 **** 0.06
16398 H 64.36934733232488 3.1643874216765084 36.77863562233796 H 0.0 **** 0.06
16399 H 63.850542592208456 2.5334373797437024 38.36035638024265 H 0.0 **** 0.06
16400 H 64.21066031155965 4.266576340675272 38.16848273825394 H 0.0 **** 0.06
16401 C 28.279761569701485 130.34364507862028 26.46435205862877 C 0.0 **** -0.24
16402 H 27.98171058225646 129.43532803744847 26.988992764926536 H 0.0 **** 0.06
16403 H 27.394006703452504 130.93555380105988 26.232094705193788 H 0.0 **** 0.06
16404 H 28.79182703849073 130.07735125836166 25.53960310500294 H 0.0 **** 0.06
16405 H 28.95086641975079 130.92460913187585 27.097476170308212 H 0.0 **** 0.06
16406 C 56.86996037042576 115.96911906262085 128.49504335619017 C 0.0 **** -0.24
16407 H 57.413718446288556 115.03653864898632 128.64605988746237 H 0.0 **** 0.06
16408 H 56.01701695626036 116.00563884037595 129.1718378922559 H 0.0 **** 0.06
16409 H 56.51940640004963 116.02222894285032 127.4644637607928 H 0.0 **** 0.06
16410 H 57.53138544111073 116.81223719820431 128.69745087253813 H 0.0 **** 0.06
16411 C 98.32524616191043 3.602819376569556 22.514931728012826 C 0.0 **** -0.24
16412 H 97.79655669782937 4.552080932704115 22.599252500906147 H 0.0 **** 0.06
16413 H 97.63506195404739 2.831450442407345 22.173193830443466 H 0.0 **** 0.06
16414 H 98.7292897553655 3.324754547113116 23.488802267882363 H 0.0 **** 0.06
16415 H 99.14086381414955 3.703510339710448 21.79814564706605 H 0.0 **** 0.06
16416 C 129.5989851164267 63.94953579644317 115.30769275853262 C 0.0 **** -0.24
16417 H 129.96697802526373 62.92388606155646 115.33308760938243 H 0.0 **** 0.06
16418 H 128.51194020538045 63.94286085232815 115.21650636979177 H 0.0 **** 0.06
16419 H 130.032516739851 64.47002834534345 114.45382397879976 H 0.0 **** 0.06
16420 H 129.88428871271515 64.45998579564906 116.22755998731992 H 0.0 **** 0.06
16421 C 80.7651005558584 121.37944684203212 45.732820812641506 C 0.0 **** -0.24
16422 H 81.24295490889028 120.98166220257534 46.628437185719775 H 0.0 **** 0.06
16423 H 81.03833797628573 122.42790057661298 45.61136231564201 H 0.0 **** 0.06
16424 H 79.68282156689008 121.29503972481284 45.83046140387549 H 0.0 **** 0.06
16425 H 81.0970025805106 120.81369183446826 44.86213235508322 H 0.0 **** 0.06
16426 C 88.97519913703877 77.0053661990764 41.371142964786145 C 0.0 **** -0.24
16427 H 89.93879563596369 77.22460472096526 40.910874201064 H 0.0 **** 0.06
16428 H 88.55344320620671 76.10598964330762 40.920666682459704 H 0.0 **** 0.06
16429 H 88.29805761818858 77.84495814413299 41.21157533673669 H 0.0 **** 0.06
16430 H 89.1121573366321 76.84701960774396 42.44128964357038 H 0.0 **** 0.06
16431 C 55.39995606519304 102.98871356675025 112.90913755445189 C 0.0 **** -0.24
16432 H 55.070348732696175 101.9831852816588 113.16749362795812 H 0.0 **** 0.06
16433 H 54.552656025894166 103.67284380886147 112.95557587206514 H 0.0 **** 0.06
16434 H 55.811693105525606 102.98757050047054 111.89920516598673 H 0.0 **** 0.06
16435 H 56.16730027512715 103.31079528240025 113.61324429626023 H 0.0 **** 0.06
16436 C 29.710619858258568 54.58185726558423 45.75871728954776 C 0.0 **** -0.24
16437 H 29.6540754876184 53.53380132595396 46.05199108895275 H 0.0 **** 0.06
16438 H 28.72533954174321 54.92494661954015 45.44517559472516 H 0.0 **** 0.06
16439 H 30.4140917270028 54.68991365693557 44.93328455571259 H 0.0 **** 0.06
16440 H 30.050722868421033 55.177651512336126 46.60571859859637 H 0.0 **** 0.06
16441 C 15.383743728336867 57.086576244986304 3.1425904613634827 C 0.0 **** -0.24
16442 H 15.943767176903975 57.876707570719475 3.6423866895805475 H 0.0 **** 0.06
16443 H 15.251166813349926 56.247937919606215 3.826035541354287 H 0.0 **** 0.06
16444 H 15.93126145988515 56.75510655844869 2.260778008245836 H 0.0 **** 0.06
16445 H 14.407334942369062 57.467724094292805 2.8424033664027206 H 0.0 **** 0.06
16446 C 18.391607844527982 2.6397786371336167 108.14354692207284 C 0.0 **** -0.24
16447 H 18.229787202035197 3.7113130762646165 108.26080342778539 H 0.0 **** 0.06
16448 H 19.432482518297547 2.40324523020044 108.36623271499103 H 0.0 **** 0.06
16449 H 18.163817599265883 2.348282080925003 107.1179585782597 H 0.0 **** 0.06
16450 H 17.740386651324798 2.097271158314925 108.8292579967975 H 0.0 **** 0.06
16451 C 38.41474040745936 93.88091577840817 25.562107469995745 C 0.0 **** -0.24
16452 H 38.899639415908865 94.67525105456633 24.993845624633508 H 0.0 **** 0.06
16453 H 37.55250962343732 93.51237534686058 25.00589517960585 H 0.0 **** 0.06
16454 H 38.08682760576181 94.2706113210507 26.525328419629425 H 0.0 **** 0.06
16455 H 39.120741767954655 93.06595688364163 25.721324722269472 H 0.0 **** 0.06
16456 C 79.40291812976123 36.44508890850046 91.86452507138958 C 0.0 **** -0.24
16457 H 79.83490799703482 37.096326940967 91.10533748280353 H 0.0 **** 0.06
16458 H 80.1344794875063 35.68987943419561 92.15360419100168 H 0.0 **** 0.06
16459 H 78.51501059957077 35.95681318242869 91.46301904370921 H 0.0 **** 0.06
16460 H 79.12812731048903 37.03800754217158 92.73748933693425 H 0.0 **** 0.06
16461 C 102.08114556004068 40.79618749162603 40.52711114955048 C 0.0 **** -0.24
16462 H 101.19063565507577 40.50774751771226 41.08615549647007 H 0.0 **** 0.06
16463 H 102.0928879714009 40.275221907404216 39.56970786956015 H 0.0 **** 0.06
16464 H 102.97029718835302 40.52756204745961 41.097988404213254 H 0.0 **** 0.06
16465 H 102.06951039911928 41.87236964725179 40.355601280961196 H 0.0 **** 0.06
16466 C 135.44924982743302 1.4534420063893947 94.48899592077552 C 0.0 **** -0.24
16467 H 134.44547554207313 1.6101819441779526 94.88475325551728 H 0.0 **** 0.06
16468 H 135.40179188067617 0.7769413133704859 93.63504646949514 H 0.0 **** 0.06
16469 H 136.08112409519765 1.0181485144237854 95.26317906936505 H 0.0 **** 0.06
16470 H 135.8680057944216 2.4088498343841707 94.17372086787236 H 0.0 **** 0.06
16471 C 125.39987417952605 60.411248252550166 55.15767089670419 C 0.0 **** -0.24
16472 H 124.32685455084706 60.338259441429415 55.332880882372024 H 0.0 **** 0.06
16473 H 125.71572526248161 59.60434716434196 54.49697977759348 H 0.0 **** 0.06
16474 H 125.92882470628774 60.33149430272073 56.106959405163906 H 0.0 **** 0.06
16475 H 125.62723001034874 61.370950620646994 54.694366764663584 H 0.0 **** 0.06
16476 C 67.59981550072524 110.72030564619683 41.75122641066622 C 0.0 **** -0.24
16477 H 67.99310649230051 111.1770722313587 42.65958017390773 H 0.0 **** 0.06
16478 H 68.24857321428328 109.89728092541384 41.4492034587272 H 0.0 **** 0.06
16479 H 67.56355404817157 111.46541554886329 40.95635509269874 H 0.0 **** 0.06
16480 H 66.59568652378039 110.34202720566066 41.94072691942472 H 0.0 **** 0.06
16481 C 134.23460544118709 8.795392322438488 135.71025143752834 C 0.0 **** -0.24
16482 H 133.53106938811078 9.364391100875878 136.31591005051231 H 0.0 **** 0.06
16483 H 134.1392344913173 7.734101747341384 135.94225965436004 H 0.0 **** 0.06
16484 H 135.2504535128405 9.125049516829748 135.9279596997557 H 0.0 **** 0.06
16485 H 134.01860310406653 8.957325635585363 134.65408446843165 H 0.0 **** 0.06
16486 C 44.29569506861344 36.15852483873928 18.892187981338132 C 0.0 **** -0.24
16487 H 44.35283049840365 36.981898919670016 18.18003368632553 H 0.0 **** 0.06
16488 H 43.51850731070617 35.461711600508806 18.579318149102463 H 0.0 **** 0.06
16489 H 44.05746703644037 36.549522050522114 19.880695738303018 H 0.0 **** 0.06
16490 H 45.25512339126524 35.64117033384014 18.926796215957026 H 0.0 **** 0.06
16491 C 118.35963391466765 103.66593375364403 3.289039194117464 C 0.0 **** -0.24
16492 H 118.32365609737448 102.57940491933846 3.2131858677120135 H 0.0 **** 0.06
16493 H 118.2335477244022 103.96181833419996 4.330727569147086 H 0.0 **** 0.06
16494 H 117.55874999255008 104.09867294666236 2.6883771764302935 H 0.0 **** 0.06
16495 H 119.32218939502901 104.0233319826628 2.9230986011326365 H 0.0 **** 0.06
16496 C 124.23564401521185 134.30666313765533 24.573060440675626 C 0.0 **** -0.24
16497 H 124.89238151927748 133.44067190206613 24.654430469123874 H 0.0 **** 0.06
16498 H 123.71469231560673 134.457733576215 25.51860320470641 H 0.0 **** 0.06
16499 H 123.50828743973801 134.1369168150992 23.779527432780327 H 0.0 **** 0.06
16500 H 124.82845664161727 135.1908296417737 24.339225384708456 H 0.0 **** 0.06
16501 C 89.77702595225352 2.9682403204682153 36.98242901339849 C 0.0 **** -0.24
16502 H 89.38109422867717 2.1088405365601197 36.44126439191291 H 0.0 **** 0.06
16503 H 89.55343782997372 3.880689735052048 36.429433090095884 H 0.0 **** 0.06
16504 H 90.85702408366171 2.8635745355022557 37.08992417006013 H 0.0 **** 0.06
16505 H 89.31737040646901 3.018832304280899 37.96961810640454 H 0.0 **** 0.06
16506 C 126.95786510476023 53.70817213951595 89.32405999687086 C 0.0 **** -0.24
16507 H 126.25747657979184 54.374365397303265 89.82870002867827 H 0.0 **** 0.06
16508 H 126.4605744814047 53.23312345126577 88.47795842109073 H 0.0 **** 0.06
16509 H 127.29691125775486 52.94305827141466 90.02242203400488 H 0.0 **** 0.06
16510 H 127.81390740999171 54.28121805210833 88.96835787772562 H 0.0 **** 0.06
16511 C 76.7710924663931 71.74764605608698 111.80807484156486 C 0.0 **** -0.24
16512 H 77.41549374867901 72.23382927297615 111.0756999893841 H 0.0 **** 0.06
16513 H 76.40270549881586 70.80656209879393 111.40042172589003 H 0.0 **** 0.06
16514 H 75.92828020769014 72.39911110869588 112.0395415855213 H 0.0 **** 0.06
16515 H 77.33946571702927 71.55300778684511 112.71831212769538 H 0.0 **** 0.06
16516 C 83.79397860763308 75.86116940132564 27.19751127392314 C 0.0 **** -0.24
16517 H 84.66506818793795 75.53863319829429 27.768928337206205 H 0.0 **** 0.06
16518 H 82.98932265083909 75.13694194491853 27.32261691905572 H 0.0 **** 0.06
16519 H 84.05901766723849 75.9321490698481 26.14251731452748 H 0.0 **** 0.06
16520 H 83.46566683785059 76.83690806816622 27.555898643505344 H 0.0 **** 0.06
16521 C 135.47811003751048 40.10428478519407 16.46495243719511 C 0.0 **** -0.24
16522 H 135.68222308176817 41.13054482230018 16.15959319976716 H 0.0 **** 0.06
16523 H 134.72507078816267 39.67205856080122 15.805970310189394 H 0.0 **** 0.06
16524 H 135.1097751156565 40.09771602564193 17.491687739917666 H 0.0 **** 0.06
16525 H 136.39462612489984 39.51861716789814 16.403660484434766 H 0.0 **** 0.06
16526 C 0.012116160149801658 40.47554959270968 83.68523421806012 C 0.0 **** -0.24
16527 H -1.019909064140922 40.81864385416998 83.74814894811908 H 0.0 **** 0.06
16528 H 0.15971349593213802 39.641315160099 84.37042978072938 H 0.0 **** 0.06
16529 H 0.6832489615448587 41.29143540840926 83.95489918275385 H 0.0 **** 0.06
16530 H 0.22475278753336525 40.15164562746628 82.66653262407748 H 0.0 **** 0.06
16531 C 97.38968222458521 120.2614196573395 43.34524994772602 C 0.0 **** -0.24
16532 H 97.87130318517781 121.19807569616535 43.0673998044993 H 0.0 **** 0.06
16533 H 98.12865100800221 119.5907061782504 43.78567555045984 H 0.0 **** 0.06
16534 H 96.9603970451162 119.79607246072118 42.45728691966792 H 0.0 **** 0.06
16535 H 96.60025555611038 120.45797003500587 44.070065443852144 H 0.0 **** 0.06
16536 C 25.971060482165534 31.026170443772074 119.25123778040107 C 0.0 **** -0.24
16537 H 26.563058992250888 30.16285525101948 119.55243809491624 H 0.0 **** 0.06
16538 H 25.08725390531781 31.099188563021826 119.88692281550244 H 0.0 **** 0.06
16539 H 25.662117068815242 30.910339732857317 118.21191044015993 H 0.0 **** 0.06
16540 H 26.56831954879047 31.930955859412478 119.35372151963853 H 0.0 **** 0.06
16541 C 24.892033766162513 97.68255082493314 0.8799821186109398 C 0.0 **** -0.24
16542 H 24.687768427978455 98.74193946679537 0.7226275165785978 H 0.0 **** 0.06
16543 H 25.290777598289083 97.53492778328784 1.883509320208475 H 0.0 **** 0.06
16544 H 25.62052991618347 97.33981877201549 0.14561155006916238 H 0.0 **** 0.06
16545 H 23.968218159533876 97.11459669134902 0.7685374956456599 H 0.0 **** 0.06
16546 C 8.639546328448375 96.67391869507351 23.48893140443093 C 0.0 **** -0.24
16547 H 7.982508911860975 96.79715452886974 24.349688518692076 H 0.0 **** 0.06
16548 H 9.676419239827567 96.79841781249243 23.801780592954913 H 0.0 **** 0.06
16549 H 8.394030880650348 97.42281204311124 22.735428905245954 H 0.0 **** 0.06
16550 H 8.503145384308937 95.67767398718995 23.068104443542467 H 0.0 **** 0.06
16551 C 28.42966261232764 18.770490769623905 67.17376663850571 C 0.0 **** -0.24
16552 H 28.615524888782126 19.17210458960315 66.17754145063925 H 0.0 **** 0.06
16553 H 29.07291676068322 17.90718153467735 67.34205595716607 H 0.0 **** 0.06
16554 H 27.38577253117591 18.469153584239336 67.25479387748818 H 0.0 **** 0.06
16555 H 28.645540535281363 19.53709217177986 67.91866402951679 H 0.0 **** 0.06
16556 C 41.25145083417647 21.641062203348874 8.198493399225924 C 0.0 **** -0.24
16557 H 42.12798105038281 21.78194299668675 8.830359217075795 H 0.0 **** 0.06
16558 H 41.455874564989735 20.86419557307243 7.461599072226193 H 0.0 **** 0.06
16559 H 41.01839112983921 22.57548591288974 7.6869910890632696 H 0.0 **** 0.06
16560 H 40.4034676566947 21.343423891353396 8.815618221723696 H 0.0 **** 0.06
16561 C 63.326693297197366 114.8097419315225 18.254705801783757 C 0.0 **** -0.24
16562 H 63.66592370501853 113.7868743889992 18.419265205039068 H 0.0 **** 0.06
16563 H 62.66269012066273 115.10714992010037 19.067097572249025 H 0.0 **** 0.06
16564 H 62.79100508517365 114.86648067939362 17.307945091103363 H 0.0 **** 0.06
16565 H 64.1875297774852 115.47654190957246 18.225596843029564 H 0.0 **** 0.06
16566 C 67.25821399038824 69.21069667078817 119.0603874169602 C 0.0 **** -0.24
16567 H 67.3531956878773 70.26796443549094 119.3055554389881 H 0.0 **** 0.06
16568 H 67.24020138751146 69.08837654528696 117.9772796618891 H 0.0 **** 0.06
16569 H 66.33352753834444 68.82110413809289 119.48557168625716 H 0.0 **** 0.06
16570 H 68.10661659858033 68.66454975225119 119.47409343727801 H 0.0 **** 0.06
16571 C 57.16060782214376 31.03384565343643 123.75411198094332 C 0.0 **** -0.24
16572 H 57.1116189498521 32.09056516244109 124.01799464191794 H 0.0 **** 0.06
16573 H 57.601777861833455 30.927793976217473 122.76316390547788 H 0.0 **** 0.06
16574 H 56.15478344613503 30.61379224051528 123.75176289873235 H 0.0 **** 0.06
16575 H 57.77389000583311 30.505934223108106 124.48427740024562 H 0.0 **** 0.06
16576 C 25.286615688864345 112.8606292216345 2.754172556881514 C 0.0 **** -0.24
16577 H 24.336265241498552 112.94589398717335 2.2285872234761825 H 0.0 **** 0.06
16578 H 25.892383730821223 112.08438936647974 2.2867061676993785 H 0.0 **** 0.06
16579 H 25.103033853814793 112.60111262151725 3.7965395180530095 H 0.0 **** 0.06
16580 H 25.81601648007313 113.81288587093422 2.704260584098847 H 0.0 **** 0.06
16581 C 35.54322550696162 40.37886225687106 124.26893866217627 C 0.0 **** -0.24
16582 H 35.53749490614709 39.521338471410814 123.5964885489982 H 0.0 **** 0.06
16583 H 34.97410650176576 40.139742101616946 125.16739632969907 H 0.0 **** 0.06
16584 H 35.089705446757335 41.23531339357726 123.76885554760023 H 0.0 **** 0.06
16585 H 36.57075415206566 40.61988405894513 124.54174710570489 H 0.0 **** 0.06
16586 C 49.30890384771456 61.52839817929565 39.30554955992709 C 0.0 **** -0.24
16587 H 49.23957847530883 61.85610642125678 38.268061543188395 H 0.0 **** 0.06
16588 H 50.33699415721014 61.631166891968405 39.65141936961076 H 0.0 **** 0.06
16589 H 49.00234778558574 60.48466617586679 39.378047636586366 H 0.0 **** 0.06
16590 H 48.65351117294385 62.14346244013352 39.923901042544855 H 0.0 **** 0.06
16591 C 102.87133718731818 15.593029665712272 85.741471146104 C 0.0 **** -0.24
16592 H 103.35841167580162 16.566137296656706 85.69368027687625 H 0.0 **** 0.06
16593 H 102.74205071544056 15.200901712701082 84.73325604685795 H 0.0 **** 0.06
16594 H 101.89670818033504 15.697964183729297 86.21888411359112 H 0.0 **** 0.06
16595 H 103.48802992099569 14.90631345538231 86.32237392434519 H 0.0 **** 0.06
16596 C 121.86928965615976 122.91504986405954 126.685344295006 C 0.0 **** -0.24
16597 H 122.54430297530507 122.20033752375241 126.21513442056417 H 0.0 **** 0.06
16598 H 122.33750755884688 123.32161971118116 127.58128289589952 H 0.0 **** 0.06
16599 H 120.94078746077349 122.41309836356791 126.95639115443981 H 0.0 **** 0.06
16600 H 121.65407540533317 123.72397114417825 125.98794469557637 H 0.0 **** 0.06
16601 C 15.226040160796344 11.70302249875687 74.07439936997554 C 0.0 **** -0.24
16602 H 15.146126210580007 11.206521495228358 73.10818122660743 H 0.0 **** 0.06
16603 H 15.516976078545156 10.976034458685785 74.83312842352277 H 0.0 **** 0.06
16604 H 14.263213080855166 12.13993915569192 74.34007761539534 H 0.0 **** 0.06
16605 H 15.978896363082356 12.489598544186787 74.01715641170082 H 0.0 **** 0.06
16606 C 93.33248784403706 99.57213408523437 87.68907083058234 C 0.0 **** -0.24
16607 H 94.041789270701 99.9484775767225 88.42698015951296 H 0.0 **** 0.06
16608 H 93.57918728297005 99.97967934760132 86.70799419190747 H 0.0 **** 0.06
16609 H 92.32383785703155 99.8781892204154 87.96690266090066 H 0.0 **** 0.06
16610 H 93.38580652490039 98.48496196223397 87.65533873710949 H 0.0 **** 0.06
16611 C 98.79688180831135 113.05220099962881 82.84588470788526 C 0.0 **** -0.24
16612 H 98.10140827065744 113.42886039118522 83.59616754823696 H 0.0 **** 0.06
16613 H 98.6364777028077 111.98279054353875 82.70740408936433 H 0.0 **** 0.06
16614 H 99.8200734103071 113.22649213065966 83.1789456856668 H 0.0 **** 0.06
16615 H 98.62826712236752 113.57061080927238 81.90216419617201 H 0.0 **** 0.06
16616 C 15.189822917214883 17.208718306391006 113.48223142426781 C 0.0 **** -0.24
16617 H 15.576010764336104 17.848898335135118 114.27457761014858 H 0.0 **** 0.06
16618 H 15.9858429910403 16.99337284081696 112.76784319678788 H 0.0 **** 0.06
16619 H 14.370559366275984 17.716062510590234 112.97113237936665 H 0.0 **** 0.06
16620 H 14.826162005342496 16.27650649812051 113.9137959274068 H 0.0 **** 0.06
16621 C 31.270536319816557 121.46863141077984 32.714358599210414 C 0.0 **** -0.24
16622 H 31.627654289674282 122.42720621893831 33.089372072437925 H 0.0 **** 0.06
16623 H 31.942856905428897 121.11031543935836 31.93455876929289 H 0.0 **** 0.06
16624 H 30.26786856145702 121.5892661419083 32.30281304435101 H 0.0 **** 0.06
16625 H 31.24320612804371 120.74646383979626 33.53094366359812 H 0.0 **** 0.06
16626 C 28.38384724912595 91.65600965649043 37.927263989691625 C 0.0 **** -0.24
16627 H 28.97775700877841 92.55115778895373 38.109771645135964 H 0.0 **** 0.06
16628 H 28.785178069303413 90.82836299440072 38.51333113941483 H 0.0 **** 0.06
16629 H 28.423678358632117 91.40395653319803 36.86733295923649 H 0.0 **** 0.06
16630 H 27.350044448582366 91.84013542655123 38.218163446201004 H 0.0 **** 0.06
16631 C 20.691964611846743 48.097025047744694 89.9909704340238 C 0.0 **** -0.24
16632 H 20.074617923009498 48.98146111101113 90.14878673376943 H 0.0 **** 0.06
16633 H 20.96810278778355 48.02939869935989 88.93918937375075 H 0.0 **** 0.06
16634 H 20.13051688506056 47.20688072913077 90.27794027350289 H 0.0 **** 0.06
16635 H 21.593171576306986 48.16884018974713 90.60010807635318 H 0.0 **** 0.06
16636 C 63.465063117952624 111.34083617048393 9.061050687467826 C 0.0 **** -0.24
16637 H 64.39509731710066 111.88584518602968 9.224542743035485 H 0.0 **** 0.06
16638 H 62.919063068808526 111.79453661892103 8.232977029065125 H 0.0 **** 0.06
16639 H 62.857084980590216 111.38231733079101 9.963856248771407 H 0.0 **** 0.06
16640 H 63.690109455172106 110.30156664105797 8.821113066031302 H 0.0 **** 0.06
16641 C 26.193030680702236 121.05614448180188 4.256766644393224 C 0.0 **** -0.24
16642 H 26.181952446978926 121.41208136071134 3.225701488086429 H 0.0 **** 0.06
16643 H 27.056338990444203 121.473203204421 4.775073344916109 H 0.0 **** 0.06
16644 H 26.254062518958506 119.96770275126437 4.263823080775467 H 0.0 **** 0.06
16645 H 25.2790739318433 121.37155359538872 4.7592257724039655 H 0.0 **** 0.06
16646 C 96.79258495229533 94.07660144852852 50.10416897370038 C 0.0 **** -0.24
16647 H 96.93482947565906 93.24116474913478 49.418844183982515 H 0.0 **** 0.06
16648 H 96.66768053829827 94.99725100169151 49.534383630023214 H 0.0 **** 0.06
16649 H 97.66518336157753 94.16584331243283 50.752919363379746 H 0.0 **** 0.06
16650 H 95.90483493898176 93.90063389336906 50.711915146014306 H 0.0 **** 0.06
16651 C 34.66642293781456 94.07259987976856 72.3498870767096 C 0.0 **** -0.24
16652 H 34.03265659490677 94.82095347361445 71.87563385973505 H 0.0 **** 0.06
16653 H 35.49551796398731 93.82577730286818 71.68597431045747 H 0.0 **** 0.06
16654 H 34.08190640237436 93.1754193413226 72.54989830966973 H 0.0 **** 0.06
16655 H 35.056933023357885 94.4685316170953 73.28762692235945 H 0.0 **** 0.06
16656 C 66.60298289034196 27.13056007798476 8.188216186480531 C 0.0 **** -0.24
16657 H 65.61648352388647 26.88954667810296 8.584909553638681 H 0.0 **** 0.06
16658 H 66.66845215094969 28.202792474995185 8.004813619668539 H 0.0 **** 0.06
16659 H 66.75959887818502 26.590514193828447 7.2549210047625365 H 0.0 **** 0.06
16660 H 67.36517725338888 26.83804418057521 8.910286996581817 H 0.0 **** 0.06
16661 C 92.03157065745471 62.044986148824734 100.9659851451612 C 0.0 **** -0.24
16662 H 91.18508257234043 61.79475277789322 101.60605567118444 H 0.0 **** 0.06
16663 H 92.12493960649564 61.29636955499424 100.17910236663056 H 0.0 **** 0.06
16664 H 92.94437053976235 62.062450345934764 101.56242415430015 H 0.0 **** 0.06
16665 H 91.87082954441414 63.02568408133695 100.5192571759523 H 0.0 **** 0.06
16666 C 27.020873692491932 49.635926963356894 31.37288086674178 C 0.0 **** -0.24
16667 H 26.72509500528065 48.74698755515254 31.928731289160368 H 0.0 **** 0.06
16668 H 27.86846083401582 50.10943114952812 31.869792278627074 H 0.0 **** 0.06
16669 H 26.18570919454487 50.33504925799997 31.333266119027456 H 0.0 **** 0.06
16670 H 27.306302300592392 49.351570166255925 30.359227640475098 H 0.0 **** 0.06
16671 C 93.19531169549313 81.4033940054879 38.188639171504725 C 0.0 **** -0.24
16672 H 92.60690928030019 82.27226540119688 38.48599119440202 H 0.0 **** 0.06
16673 H 92.58974452967095 80.5017266801865 38.29428306654263 H 0.0 **** 0.06
16674 H 94.07596923154586 81.3266538616664 38.825853647125705 H 0.0 **** 0.06
16675 H 93.50604984259837 81.51327531668272 37.149930869096025 H 0.0 **** 0.06
16676 C 110.56875244898615 35.37358165192522 87.11615571313354 C 0.0 **** -0.24
16677 H 110.19614913602817 34.39244403348539 87.40852834028817 H 0.0 **** 0.06
16678 H 110.55950724822043 35.45707152270944 86.02944966999496 H 0.0 **** 0.06
16679 H 111.58853492681897 35.498310686258705 87.48103713664068 H 0.0 **** 0.06
16680 H 109.93218743577714 36.147392278389646 87.54618268684285 H 0.0 **** 0.06
16681 C 33.03075259664308 129.728637368184 10.62889253176121 C 0.0 **** -0.24
16682 H 33.185405031292134 129.4526615377243 11.671587113002602 H 0.0 **** 0.06
16683 H 33.54415343312408 130.6682623680577 10.421512285588392 H 0.0 **** 0.06
16684 H 31.963810796336816 129.84703964615187 10.439073745364567 H 0.0 **** 0.06
16685 H 33.43019487665191 128.94601274521892 9.982792933329108 H 0.0 **** 0.06
16686 C 19.054914631569275 4.634394276457982 103.61891239823946 C 0.0 **** -0.24
16687 H 19.361168157055403 4.093699186966063 102.72308725607988 H 0.0 **** 0.06
16688 H 18.30482386176351 4.053336804629197 104.15547284781726 H 0.0 **** 0.06
16689 H 18.63193638747599 5.598186090567907 103.33401444066133 H 0.0 **** 0.06
16690 H 19.919760394332513 4.793611186063146 104.26148049276355 H 0.0 **** 0.06
16691 C 36.10778888595709 42.39008181865634 41.332206332586736 C 0.0 **** -0.24
16692 H 37.09708413613388 42.0095983007578 41.58564319637054 H 0.0 **** 0.06
16693 H 35.52463143179989 42.5217561128041 42.24511402304938 H 0.0 **** 0.06
16694 H 35.60210993519327 41.68008308196025 40.677907741838254 H 0.0 **** 0.06
16695 H 36.20640948252879 43.34759091873511 40.82249829662567 H 0.0 **** 0.06
16696 C 38.47553332472419 25.18510385722726 77.04829862728485 C 0.0 **** -0.24
16697 H 38.30901356432865 25.99169956879564 76.33418197159861 H 0.0 **** 0.06
16698 H 39.42830351235175 24.701116848474612 76.83219301603384 H 0.0 **** 0.06
16699 H 37.670105580777275 24.454338023705702 76.96546399190987 H 0.0 **** 0.06
16700 H 38.49513299351994 25.59233109426728 78.05853465497916 H 0.0 **** 0.06
16701 C 89.05957997802147 124.50720080836737 38.75672176890484 C 0.0 **** -0.24
16702 H 89.15963176508842 125.53782511108855 39.09713805429146 H 0.0 **** 0.06
16703 H 89.6227426807456 124.3737754138809 37.83259053549415 H 0.0 **** 0.06
16704 H 88.0079825192484 124.28443586664523 38.57670338830451 H 0.0 **** 0.06
16705 H 89.44830003867662 123.83231393249712 39.51962969540648 H 0.0 **** 0.06
16706 C 107.77327371996977 26.610595937087318 94.64301958567191 C 0.0 **** -0.24
16707 H 108.29650719192428 26.040396382291334 93.87476096343501 H 0.0 **** 0.06
16708 H 106.91809478173984 26.0362617610553 95.00083287712738 H 0.0 **** 0.06
16709 H 107.42658813783082 27.55392915863549 94.2223587339991 H 0.0 **** 0.06
16710 H 108.45129507337266 26.80875635350465 95.47294822101843 H 0.0 **** 0.06
16711 C 67.98039402874241 108.04094482261848 38.62025102409653 C 0.0 **** -0.24
16712 H 68.63275246831148 108.88787456051955 38.40779975357441 H 0.0 **** 0.06
16713 H 66.93951306679818 108.35380370019618 38.53220414855923 H 0.0 **** 0.06
16714 H 68.1682502077287 107.68203777231003 39.63130580265144 H 0.0 **** 0.06
16715 H 68.18095358049692 107.24114931813182 37.907501369527054 H 0.0 **** 0.06
16716 C 13.30225257838515 121.11651582119873 73.98736623262893 C 0.0 **** -0.24
16717 H 13.664165285924753 121.34865073823084 72.98557700812624 H 0.0 **** 0.06
16718 H 12.332305352419468 120.62326468433889 73.91746060053636 H 0.0 **** 0.06
16719 H 13.201183151508758 122.03882089236026 74.55931411759387 H 0.0 **** 0.06
16720 H 14.010938678551554 120.45521626493712 74.48576663730788 H 0.0 **** 0.06
16721 C 93.89558718221906 3.115595626733711 49.53525028796781 C 0.0 **** -0.24
16722 H 94.68054199400541 2.369118444205288 49.6615153976818 H 0.0 **** 0.06
16723 H 93.29138621619859 2.8627078316520453 48.66393402949956 H 0.0 **** 0.06
16724 H 94.3465366361587 4.097478629236097 49.39428438775309 H 0.0 **** 0.06
16725 H 93.26400917444153 3.130698372663602 50.423973657862945 H 0.0 **** 0.06
16726 C 10.976880479028978 48.61943862547275 71.12108585543572 C 0.0 **** -0.24
16727 H 10.082480524961511 48.53543232525476 71.73742396794341 H 0.0 **** 0.06
16728 H 10.866080121802668 47.995268129402575 70.23346847730653 H 0.0 **** 0.06
16729 H 11.843987677469727 48.28905544885657 71.69208417144321 H 0.0 **** 0.06
16730 H 11.113427544979174 49.65823097143425 70.81948106386508 H 0.0 **** 0.06
16731 C 68.5184453981409 125.12563755373009 58.88213348267263 C 0.0 **** -0.24
16732 H 69.0474722294527 124.34218730021524 59.42455431906026 H 0.0 **** 0.06
16733 H 67.757424875006 125.56409605647099 59.52811412772212 H 0.0 **** 0.06
16734 H 68.0443570064935 124.69875835895965 57.99824694116917 H 0.0 **** 0.06
16735 H 69.2265194565328 125.89740784378864 58.57746991646037 H 0.0 **** 0.06
16736 C 5.3113964170538 39.80769311306702 11.815173438739805 C 0.0 **** -0.24
16737 H 6.039976093003929 39.86693089565853 11.007236215746843 H 0.0 **** 0.06
16738 H 4.516338217218248 39.11500502113688 11.536816134274602 H 0.0 **** 0.06
16739 H 4.8860751626443175 40.79479752453699 11.995466972359452 H 0.0 **** 0.06
16740 H 5.801571867626848 39.452444388142794 12.722079427429378 H 0.0 **** 0.06
16741 C 29.67369480804264 42.24770308353851 69.33885677921852 C 0.0 **** -0.24
16742 H 30.05866255509911 41.25881942023849 69.09014411584053 H 0.0 **** 0.06
16743 H 30.361381336378663 42.74258340375975 70.02567905322083 H 0.0 **** 0.06
16744 H 28.696925525843334 42.14886260608014 69.81067593434508 H 0.0 **** 0.06
16745 H 29.579944874709227 42.83992351045057 68.42915851621159 H 0.0 **** 0.06
16746 C 63.70155129913276 96.96236236037771 77.95683396284842 C 0.0 **** -0.24
16747 H 63.02686948320208 97.17549500078292 77.12779356657128 H 0.0 **** 0.06
16748 H 63.55116644805818 95.93528078328234 78.29104638592904 H 0.0 **** 0.06
16749 H 63.49514044450105 97.6468954963184 78.77937939711106 H 0.0 **** 0.06
16750 H 64.73324556444767 97.08991442126717 77.62790006121908 H 0.0 **** 0.06
16751 C 2.7768229607769115 11.283165279758624 88.50512461422525 C 0.0 **** -0.24
16752 H 2.0087827590064933 10.65344820680529 88.05750573882642 H 0.0 **** 0.06
16753 H 3.652402675028412 10.676939071938833 88.73987994312029 H 0.0 **** 0.06
16754 H 2.389986011529089 11.732557324618387 89.42076925848278 H 0.0 **** 0.06
16755 H 3.0558438647909725 12.069607060134196 87.80477494140388 H 0.0 **** 0.06
16756 C 98.11482266972425 28.845488448040868 58.407801373243785 C 0.0 **** -0.24
16757 H 98.77698904394477 29.53710872469688 57.88820240614571 H 0.0 **** 0.06
16758 H 98.58555279415286 27.86358704727192 58.46210493753068 H 0.0 **** 0.06
16759 H 97.17340390164806 28.76697916612241 57.86445706534384 H 0.0 **** 0.06
16760 H 97.92329723437778 29.213102505239135 59.41565748943579 H 0.0 **** 0.06
16761 C 6.08804399000087 25.024776898292245 14.119826249403829 C 0.0 **** -0.24
16762 H 6.957170376451188 24.734714662296092 14.709963750741942 H 0.0 **** 0.06
16763 H 6.4198162529394835 25.473086504605426 13.182938445440644 H 0.0 **** 0.06
16764 H 5.494169061243781 25.74734539601817 14.67930581416509 H 0.0 **** 0.06
16765 H 5.483016823784169 24.14267374023185 13.906499548603477 H 0.0 **** 0.06
16766 C 8.75749267934745 18.637872330925177 34.34513254649738 C 0.0 **** -0.24
16767 H 7.819675953618287 19.179460181700506 34.46549206494552 H 0.0 **** 0.06
16768 H 9.293753703906987 19.027988559139033 33.479251740966504 H 0.0 **** 0.06
16769 H 8.547806802445194 17.578713681505462 34.19624721053265 H 0.0 **** 0.06
16770 H 9.368652555874661 18.76590556166161 35.23825131481681 H 0.0 **** 0.06
16771 C 52.729984211453484 62.720223163561855 73.70479099502658 C 0.0 **** -0.24
16772 H 53.626459123024176 63.33893444619463 73.73125040450259 H 0.0 **** 0.06
16773 H 52.079558924731884 63.057059760801394 72.89808344125957 H 0.0 **** 0.06
16774 H 52.20235969599696 62.803839339748436 74.65558741247564 H 0.0 **** 0.06
16775 H 53.011432802662455 61.68069898717124 73.53666235818174 H 0.0 **** 0.06
16776 C 112.54203924656662 48.33707072793332 44.375384043142844 C 0.0 **** -0.24
16777 H 112.09638010456058 47.434104368021934 44.791149222632185 H 0.0 **** 0.06
16778 H 111.91094852521269 48.716161839624675 43.57186523793642 H 0.0 **** 0.06
16779 H 113.53159052978066 48.10568013899355 43.98161926404333 H 0.0 **** 0.06
16780 H 112.62988729585481 49.09269223571465 45.15623033592358 H 0.0 **** 0.06
16781 C 98.14313875828378 71.38308143643484 124.95564960342296 C 0.0 **** -0.24
16782 H 98.10056093935299 72.46764440611888 124.8618876742257 H 0.0 **** 0.06
16783 H 97.66534501721303 70.92443869981763 124.08856878096478 H 0.0 **** 0.06
16784 H 97.62212737892213 71.07540651065602 125.86212703352858 H 0.0 **** 0.06
16785 H 99.18447374248521 71.06299018999187 125.00840542597697 H 0.0 **** 0.06
16786 C 129.229362054443 113.73112358901284 40.18585471196714 C 0.0 **** -0.24
16787 H 129.14950329594174 114.7248735613567 40.62641756652684 H 0.0 **** 0.06
16788 H 129.97503981751822 113.1510261247088 40.73050204536142 H 0.0 **** 0.06
16789 H 129.5289005255209 113.81979471564861 39.14144185751405 H 0.0 **** 0.06
16790 H 128.26283550259365 113.22941061705001 40.24556771618654 H 0.0 **** 0.06
16791 C 87.80742302430258 100.58153783123261 125.03907793901891 C 0.0 **** -0.24
16792 H 87.52380575183156 101.18832457136278 125.89883147511216 H 0.0 **** 0.06
16793 H 88.45244625052527 101.1640200341811 124.3813952094689 H 0.0 **** 0.06
16794 H 86.91109408403992 100.27974547315442 124.49630366643203 H 0.0 **** 0.06
16795 H 88.34089254310379 99.69476867490775 125.3809591833404 H 0.0 **** 0.06
16796 C 95.90358955353145 68.65311366225976 56.52222935553313 C 0.0 **** -0.24
16797 H 96.56735342370962 69.44340598591347 56.87355064920533 H 0.0 **** 0.06
16798 H 96.36684959268185 67.68242100121245 56.70533058797942 H 0.0 **** 0.06
16799 H 95.72679049737198 68.77611365463258 55.45328913269836 H 0.0 **** 0.06
16800 H 94.95520089158876 68.7103378968086 57.05597402426268 H 0.0 **** 0.06
16801 C 76.06602061867363 22.04695889377922 122.71333449218974 C 0.0 **** -0.24
16802 H 75.14355223929623 22.540650764910737 122.40602433226474 H 0.0 **** 0.06
16803 H 76.07268104176893 21.933580983710357 123.79744618131906 H 0.0 **** 0.06
16804 H 76.91936200064609 22.650072533450725 122.40489740378473 H 0.0 **** 0.06
16805 H 76.12576363414313 21.064661612933406 122.24441776404473 H 0.0 **** 0.06
16806 C 31.31439017877807 10.100555290579564 7.795113648910842 C 0.0 **** -0.24
16807 H 31.49522558780839 9.386046807743924 6.99185947970966 H 0.0 **** 0.06
16808 H 32.17711561303605 10.122443226807775 8.462205758900495 H 0.0 **** 0.06
16809 H 30.429073581993947 9.801027804283478 8.35580506119993 H 0.0 **** 0.06
16810 H 31.15820911232302 11.091386268984252 7.370489778052104 H 0.0 **** 0.06
16811 C 37.93783202502641 47.54907964707229 26.858069745766727 C 0.0 **** -0.24
16812 H 36.9709464680532 47.0625427828993 26.988024655602487 H 0.0 **** 0.06
16813 H 38.09411520198052 48.26643393364964 27.662786707146694 H 0.0 **** 0.06
16814 H 37.95761574229449 48.066970282432635 25.899584524798826 H 0.0 **** 0.06
16815 H 38.727529191041306 46.79770212346125 26.88109784760576 H 0.0 **** 0.06
16816 C 75.46759764854528 74.61742818107422 61.704567850468166 C 0.0 **** -0.24
16817 H 75.30548568968982 74.86306249408628 60.65492811662786 H 0.0 **** 0.06
16818 H 74.72022878455306 73.89314764086598 62.027286775244846 H 0.0 **** 0.06
16819 H 75.38097833250794 75.52210992987335 62.30595629978518 H 0.0 **** 0.06
16820 H 76.46385184735004 74.19250174162363 61.828164639484186 H 0.0 **** 0.06
16821 C 41.81071232262573 83.27400337520527 15.480066382963678 C 0.0 **** -0.24
16822 H 42.12030832027902 83.31868786126859 16.524582400985665 H 0.0 **** 0.06
16823 H 41.78660100343127 84.28237256053757 15.066540923436321 H 0.0 **** 0.06
16824 H 40.81826192056022 82.8296154218612 15.414908555539 H 0.0 **** 0.06
16825 H 42.51967107657293 82.66643367473279 14.917672745294425 H 0.0 **** 0.06
16826 C 113.657913747366 91.20402032214702 4.653310398031568 C 0.0 **** -0.24
16827 H 113.80549618055284 92.13908764592742 5.193940217420149 H 0.0 **** 0.06
16828 H 113.74939168091458 91.38497320575277 3.5825000100696656 H 0.0 **** 0.06
16829 H 112.66422792021322 90.81149710748662 4.872075391260353 H 0.0 **** 0.06
16830 H 114.41107581916722 90.48075707136684 4.966676392956774 H 0.0 **** 0.06
16831 C 56.544646188202705 57.70377669817907 93.80112221405098 C 0.0 **** -0.24
16832 H 55.93734747717534 58.07522296513089 92.97577864780514 H 0.0 **** 0.06
16833 H 55.96959011849388 57.75148086120167 94.72652318031294 H 0.0 **** 0.06
16834 H 57.44035925643095 58.31813835484026 93.89750664828709 H 0.0 **** 0.06
16835 H 56.83244187067349 56.67065624318131 93.60396269555173 H 0.0 **** 0.06
16836 C 50.49079962999025 113.96001240791668 62.776155069134816 C 0.0 **** -0.24
16837 H 51.254623173006735 114.51050616113923 62.227521078854664 H 0.0 **** 0.06
16838 H 49.76959201648555 113.54262462056101 62.07430392997733 H 0.0 **** 0.06
16839 H 49.981474730614366 114.63519736960558 63.463254365678196 H 0.0 **** 0.06
16840 H 50.95943700470565 113.15284571454606 63.33967350655166 H 0.0 **** 0.06
16841 C 10.332688692630853 101.89270145629172 116.83258616191398 C 0.0 **** -0.24
16842 H 9.282960131798944 102.07331504792637 117.06603590995118 H 0.0 **** 0.06
16843 H 10.897047686557585 102.81707403192212 116.96246075316978 H 0.0 **** 0.06
16844 H 10.421506213260926 101.55471094108123 115.80039679193956 H 0.0 **** 0.06
16845 H 10.728014621640881 101.12861909023587 117.50135187186501 H 0.0 **** 0.06
16846 C 70.67611305913591 77.22286356246582 48.26336152322665 C 0.0 **** -0.24
16847 H 71.53968921974207 77.44519435221821 47.63706585346921 H 0.0 **** 0.06
16848 H 70.94886510256059 76.46903526450319 49.00229880647291 H 0.0 **** 0.06
16849 H 69.86428942345603 76.84518283400564 47.64180644888333 H 0.0 **** 0.06
16850 H 70.35186750682041 78.13065223181519 48.77232087575577 H 0.0 **** 0.06
16851 C 61.52525623329781 17.38222120341868 68.26369500333962 C 0.0 **** -0.24
16852 H 62.30712284287745 17.13622984322103 67.54490926691795 H 0.0 **** 0.06
16853 H 61.945530285832064 17.38213690387863 69.2700676164362 H 0.0 **** 0.06
16854 H 60.72926272229279 16.641101209389262 68.20273209472916 H 0.0 **** 0.06
16855 H 61.12185625722745 18.36905556659707 68.03822121592869 H 0.0 **** 0.06
16856 C 40.30858226146407 126.90706623055985 11.966014325847397 C 0.0 **** -0.24
16857 H 40.31193031590644 127.87772457243251 12.463499309390585 H 0.0 **** 0.06
16858 H 41.1226209041466 126.29721682209089 12.357326005215555 H 0.0 **** 0.06
16859 H 40.441872182369735 127.04803891718095 10.893668516159437 H 0.0 **** 0.06
16860 H 39.35796986584245 126.40771451156942 12.151586322077264 H 0.0 **** 0.06
16861 C 1.2543026030936062 136.78311704981752 45.474010076294775 C 0.0 **** -0.24
16862 H 0.5654071116144053 136.22309132681548 44.84267245460609 H 0.0 **** 0.06
16863 H 1.4273620972394383 137.76779016227678 45.039672260151264 H 0.0 **** 0.06
16864 H 2.1995933700976025 136.2462234560019 45.54569441218 H 0.0 **** 0.06
16865 H 0.8239509177129776 136.89600338757424 46.46994694368868 H 0.0 **** 0.06
16866 C 14.647949031871349 77.53091059488554 21.344581276319985 C 0.0 **** -0.24
16867 H 14.122308784605934 77.99528703582592 20.510757630809223 H 0.0 **** 0.06
16868 H 14.359412600972917 76.48195284361651 21.41608968610595 H 0.0 **** 0.06
16869 H 14.387209684076993 78.0446664025315 22.2697439717697 H 0.0 **** 0.06
16870 H 15.723742164557336 77.60177390116496 21.18062505721231 H 0.0 **** 0.06
16871 C 32.83853134083901 50.03867774180185 60.93041266224486 C 0.0 **** -0.24
16872 H 32.67698487864206 50.698594633789384 61.78282424256828 H 0.0 **** 0.06
16873 H 33.19752147854254 50.62328305081516 60.08225238016129 H 0.0 **** 0.06
16874 H 31.90072240034027 49.551565782514814 60.663991237657896 H 0.0 **** 0.06
16875 H 33.57944192158055 49.28344018154236 61.19035062607614 H 0.0 **** 0.06
16876 C 91.97230417876196 7.5601653601484315 13.273816408762059 C 0.0 **** -0.24
16877 H 92.84637733110455 8.18193616000488 13.085014468224657 H 0.0 **** 0.06
16878 H 91.28914863804877 7.624602765465113 12.425418207960675 H 0.0 **** 0.06
16879 H 91.46615867086456 7.908035089953643 14.174677922920175 H 0.0 **** 0.06
16880 H 92.2853441527875 6.525002980904219 13.41034805142122 H 0.0 **** 0.06
16881 C 61.37732261939635 23.935637183034203 64.60142362145362 C 0.0 **** -0.24
16882 H 60.97225879372178 23.22845439657729 65.32569145550359 H 0.0 **** 0.06
16883 H 60.830789529895355 24.876254613884498 64.66840485361377 H 0.0 **** 0.06
16884 H 61.275250110625166 23.525076936527086 63.59740644080287 H 0.0 **** 0.06
16885 H 62.43110193528747 24.111342600528502 64.816832079911 H 0.0 **** 0.06
16886 C 120.40028719774381 21.407691578145815 80.24530663407381 C 0.0 **** -0.24
16887 H 120.15982597574893 21.70232595943412 81.267086977421 H 0.0 **** 0.06
16888 H 119.5742233148755 20.831005755628127 79.82950863861083 H 0.0 **** 0.06
16889 H 121.30498581046915 20.799329966049484 80.24611486107602 H 0.0 **** 0.06
16890 H 120.5634717436406 22.299706045922676 79.63928508030267 H 0.0 **** 0.06
16891 C 22.211453319471957 102.64330030998774 49.86123006789178 C 0.0 **** -0.24
16892 H 22.158360575247514 101.55607099416984 49.89800710997204 H 0.0 **** 0.06
16893 H 21.39330200655752 103.02701209512995 49.25135075349401 H 0.0 **** 0.06
16894 H 23.163381828440777 102.94618955518825 49.42319084713043 H 0.0 **** 0.06
16895 H 22.13150260115549 103.04575147691506 50.871304335561206 H 0.0 **** 0.06
16896 C 104.4508364584383 30.24644179080849 15.702897108743628 C 0.0 **** -0.24
16897 H 104.46335023474037 29.471561804250115 14.936034995890914 H 0.0 **** 0.06
16898 H 104.94351163408432 29.87403427269618 16.601994407100328 H 0.0 **** 0.06
16899 H 103.41941864696263 30.510748527831538 15.935678761630982 H 0.0 **** 0.06
16900 H 104.97862116340671 31.127262255747723 15.336924860522103 H 0.0 **** 0.06
16901 C 36.05246220437175 115.78475414504459 15.803605048379389 C 0.0 **** -0.24
16902 H 36.24984919575883 115.47590544854205 14.777240637030964 H 0.0 **** 0.06
16903 H 35.950600706119985 114.90217480057541 16.435603487836005 H 0.0 **** 0.06
16904 H 35.129632971893585 116.36470661858704 15.837508507956287 H 0.0 **** 0.06
16905 H 36.87833324791359 116.39673087546757 16.164902041032832 H 0.0 **** 0.06
16906 C 105.91607089006476 68.139610614064 12.071001806808322 C 0.0 **** -0.24
16907 H 105.57284505663944 67.65951271358534 12.98704168791157 H 0.0 **** 0.06
16908 H 106.35717955305486 67.39248972246389 11.412188083249319 H 0.0 **** 0.06
16909 H 106.66242186585225 68.8957183817212 12.31539768120572 H 0.0 **** 0.06
16910 H 105.07113530208477 68.61201887002764 11.57028797666591 H 0.0 **** 0.06
16911 C 3.3223350222759223 49.99953723089526 108.38392965956348 C 0.0 **** -0.24
16912 H 3.8295964338762474 49.33699464575227 107.68243107955732 H 0.0 **** 0.06
16913 H 3.8760270458201376 50.026613267886745 109.32337693057468 H 0.0 **** 0.06
16914 H 2.313083733854569 49.631189967687334 108.56644587294306 H 0.0 **** 0.06
16915 H 3.271380742097165 51.00389913970214 107.96309014716229 H 0.0 **** 0.06
16916 C 68.833878488795 95.58948498874926 61.49245918461298 C 0.0 **** -0.24
16917 H 68.04416482344382 96.18149065321991 61.030586202751024 H 0.0 **** 0.06
16918 H 68.68801844306554 95.56796284802613 62.57322131586622 H 0.0 **** 0.06
16919 H 69.80248503005015 96.03597997749401 61.265323314423085 H 0.0 **** 0.06
16920 H 68.80212882481919 94.57290419670753 61.1011479412043 H 0.0 **** 0.06
16921 C 100.8097108864087 102.78664390063597 41.83550439607268 C 0.0 **** -0.24
16922 H 101.60892797982645 103.37798143288074 42.282292958903696 H 0.0 **** 0.06
16923 H 99.84733439624266 103.13146548517392 42.21406699423625 H 0.0 **** 0.06
16924 H 100.94753365200782 101.73680901476945 42.09272924511393 H 0.0 **** 0.06
16925 H 100.83686338712135 102.90141888741852 40.75080830224158 H 0.0 **** 0.06
16926 C 28.91298422412018 71.13960020904881 83.6064184077747 C 0.0 **** -0.24
16927 H 28.457833802577397 72.12866828967293 83.65814351845034 H 0.0 **** 0.06
16928 H 29.830817206168206 71.13157779000932 84.19302837167926 H 0.0 **** 0.06
16929 H 29.14271710045233 70.900632731038 82.56749999698347 H 0.0 **** 0.06
16930 H 28.218935984346956 70.39907372709683 84.00478214039147 H 0.0 **** 0.06
16931 C 89.9717680784172 4.738552159482676 82.1139925939691 C 0.0 **** -0.24
16932 H 89.96028088051108 5.704984655925141 82.6173387046669 H 0.0 **** 0.06
16933 H 90.48783735385098 4.009677066767974 82.73906432843478 H 0.0 **** 0.06
16934 H 90.48977889653116 4.831673225524288 81.15942655335752 H 0.0 **** 0.06
16935 H 88.94753984599217 4.408245344411874 81.94057401618181 H 0.0 **** 0.06
16936 C 14.158552352662014 14.81137907467535 132.7643993645108 C 0.0 **** -0.24
16937 H 13.898912830325344 13.757281880591826 132.66941273180743 H 0.0 **** 0.06
16938 H 14.871269445526423 15.082124501548833 131.9851302575988 H 0.0 **** 0.06
16939 H 14.604133570518457 14.989837606685995 133.74316082912847 H 0.0 **** 0.06
16940 H 13.258013546641507 15.416950702245558 132.65996782080484 H 0.0 **** 0.06
16941 C 124.57032444513499 121.06641147511041 136.7688689953036 C 0.0 **** -0.24
16942 H 124.41422681259027 121.4212410997773 137.78782313981253 H 0.0 **** 0.06
16943 H 125.22078582906983 120.19184995740605 136.78430291732224 H 0.0 **** 0.06
16944 H 125.03536619954198 121.85583044285973 136.1772077856092 H 0.0 **** 0.06
16945 H 123.61009166675478 120.79925673951355 136.3270925328368 H 0.0 **** 0.06
16946 C 115.04301626367632 119.3086172887584 55.63048981246823 C 0.0 **** -0.24
16947 H 115.1411875706012 119.93883119636419 54.7468197001356 H 0.0 **** 0.06
16948 H 114.8584923434276 119.93407125887163 56.50447342884843 H 0.0 **** 0.06
16949 H 115.96224622053273 118.7425541443622 55.776824379882555 H 0.0 **** 0.06
16950 H 114.20910523541141 118.61979324396943 55.49440929186915 H 0.0 **** 0.06
16951 C 55.81287567164111 7.4570003182140425 3.3260103678069584 C 0.0 **** -0.24
16952 H 56.746786079331514 7.134320714611739 3.785912827721063 H 0.0 **** 0.06
16953 H 55.98753988483196 7.683484332633391 2.2736280600367422 H 0.0 **** 0.06
16954 H 55.447370431634226 8.348800525863858 3.834989114377322 H 0.0 **** 0.06
16955 H 55.072716531134915 6.661490305364833 3.4087889956367974 H 0.0 **** 0.06
16956 C 128.12397955430046 81.18705747607646 108.2357646638899 C 0.0 **** -0.24
16957 H 127.92651173808397 82.25801938414239 108.29616486534408 H 0.0 **** 0.06
16958 H 128.23103889964608 80.89693710591445 107.19019421487957 H 0.0 **** 0.06
16959 H 127.29450332973315 80.63917605865619 108.68230154242154 H 0.0 **** 0.06
16960 H 129.0434284024317 80.95702446647945 108.77390561428912 H 0.0 **** 0.06
16961 C 75.23994158749929 91.58070604986975 28.75202152383678 C 0.0 **** -0.24
16962 H 75.25465517684756 91.37672842881926 29.823131578165487 H 0.0 **** 0.06
16963 H 75.35688937760165 92.65225702981493 28.58567296917979 H 0.0 **** 0.06
16964 H 74.29012106129142 91.24948494449171 28.33353071372254 H 0.0 **** 0.06
16965 H 76.05688498516753 91.04533421571739 28.268842967552857 H 0.0 **** 0.06
16966 C 66.81609825373033 134.43506754241713 90.21912194894664 C 0.0 **** -0.24
16967 H 66.61056196088015 134.25092233044617 91.27422360041949 H 0.0 **** 0.06
16968 H 67.11387811193651 133.5024946637871 89.73889274862061 H 0.0 **** 0.06
16969 H 67.62142534391211 135.1643717257211 90.12808472198135 H 0.0 **** 0.06
16970 H 65.91824498810638 134.82244371642045 89.73750459299164 H 0.0 **** 0.06
16971 C 117.29345069158293 70.93027306218018 44.90023964686989 C 0.0 **** -0.24
16972 H 118.29267787835082 71.21631607638808 45.229592823663864 H 0.0 **** 0.06
16973 H 117.26401264711791 69.85479292186469 44.72241394697761 H 0.0 **** 0.06
16974 H 117.04970759741167 71.45855287981519 43.977854773329454 H 0.0 **** 0.06
16975 H 116.5687847483448 71.19147475065034 45.6707913744205 H 0.0 **** 0.06
16976 C 2.6008510813266525 52.38531437743815 63.72984582731692 C 0.0 **** -0.24
16977 H 1.9597339574319221 53.18033671574578 64.11101428063206 H 0.0 **** 0.06
16978 H 2.210233439478543 52.02895548522295 62.77643338703136 H 0.0 **** 0.06
16979 H 2.623824252401448 51.56281053576774 64.44446440248487 H 0.0 **** 0.06
16980 H 3.6113261388032925 52.77090418726934 63.58753347297625 H 0.0 **** 0.06
16981 C 124.97781835487103 108.09081292291458 40.594928683550364 C 0.0 **** -0.24
16982 H 125.60395503408643 107.2696795538513 40.24389880288555 H 0.0 **** 0.06
16983 H 125.26264085628827 109.00959767625626 40.08398181681797 H 0.0 **** 0.06
16984 H 125.11126255329259 108.2139955830196 41.66930790036389 H 0.0 **** 0.06
16985 H 123.93225618549377 107.86521949007707 40.382607077263316 H 0.0 **** 0.06
16986 C 71.46888197427553 131.97032830237697 39.63723521335089 C 0.0 **** -0.24
16987 H 71.03348018755868 132.11703312894497 38.64911375774125 H 0.0 **** 0.06
16988 H 70.79586151157474 131.36436275110634 40.244621675258145 H 0.0 **** 0.06
16989 H 71.61851351774934 132.9380549208347 40.11660008640115 H 0.0 **** 0.06
16990 H 72.42844118368845 131.4614352457039 39.53908175881969 H 0.0 **** 0.06
16991 C 111.04523897827812 60.91627804812879 125.66247706285773 C 0.0 **** -0.24
16992 H 110.44184247374332 61.62449900328829 126.22995109730417 H 0.0 **** 0.06
16993 H 111.18938234998623 60.009426318649446 126.25149555455783 H 0.0 **** 0.06
16994 H 112.01423272018818 61.36189541758242 125.43759187041569 H 0.0 **** 0.06
16995 H 110.534816211791 60.668353066904075 124.73167854650885 H 0.0 **** 0.06
16996 C 72.52317613706992 69.45569902848749 113.3257239018939 C 0.0 **** -0.24
16997 H 72.59535516734269 70.11235389413218 114.1927767496133 H 0.0 **** 0.06
16998 H 73.31888051260665 69.69738657223428 112.62050069136231 H 0.0 **** 0.06
16999 H 71.55533452476391 69.59517670524491 112.84347740657108 H 0.0 **** 0.06
17000 H 72.6233959924956 68.41921548041256 113.64575957961517 H 0.0 **** 0.06
17001 C 45.227263732973086 41.730877757696206 99.529012531814 C 0.0 **** -0.24
17002 H 45.04919424731017 41.38619036775821 98.51081368890613 H 0.0 **** 0.06
17003 H 44.3116799347942 42.16745243502902 99.92954340168615 H 0.0 **** 0.06
17004 H 46.01625677607717 42.48274290164393 99.5247896857401 H 0.0 **** 0.06
17005 H 45.530715334756565 40.88874473441442 100.14994578048562 H 0.0 **** 0.06
17006 C 49.844469092744035 73.6582463628493 79.70031221384734 C 0.0 **** -0.24
17007 H 48.92927520251058 73.14583543262665 79.400758669445 H 0.0 **** 0.06
17008 H 49.958677579562064 73.59383900041348 80.78260108257895 H 0.0 **** 0.06
17009 H 49.78885635769683 74.7039537394329 79.4013368471663 H 0.0 **** 0.06
17010 H 50.69961174243157 73.18602397606568 79.2156740231261 H 0.0 **** 0.06
17011 C 71.33236690738602 92.2222923148234 11.923710031769158 C 0.0 **** -0.24
17012 H 70.82598900521134 92.57148020501012 12.823139997556364 H 0.0 **** 0.06
17013 H 72.10050637636192 92.94090232104575 11.636185209082758 H 0.0 **** 0.06
17014 H 70.608299389726 92.12070154974995 11.114845615999762 H 0.0 **** 0.06
17015 H 71.79510421934312 91.25488841076385 12.120051440906611 H 0.0 **** 0.06
17016 C 126.45137157842362 125.52724517593026 28.845554342235687 C 0.0 **** -0.24
17017 H 125.41927328515726 125.83808712336975 29.009869567339365 H 0.0 **** 0.06
17018 H 127.12099478791669 126.18849208063182 29.39554829832781 H 0.0 **** 0.06
17019 H 126.68051235262271 125.57944613916345 27.781546075473784 H 0.0 **** 0.06
17020 H 126.5812500708605 124.5041175263872 29.19609446724536 H 0.0 **** 0.06
17021 C 78.72955574050816 39.4132942788782 83.96951516169388 C 0.0 **** -0.24
17022 H 79.10778099572988 38.45510954580186 84.32555972061205 H 0.0 **** 0.06
17023 H 77.71166004562797 39.28665082663832 83.59904665804046 H 0.0 **** 0.06
17024 H 79.36696738105026 39.77824648302959 83.16473425537593 H 0.0 **** 0.06
17025 H 78.73149718024831 40.131831091940285 84.78904559608884 H 0.0 **** 0.06
17026 C 89.85042783258287 120.6944898062219 38.984293421845365 C 0.0 **** -0.24
17027 H 89.57385705277777 120.36938331243203 39.9873180675375 H 0.0 **** 0.06
17028 H 88.94857810696443 120.82562350991901 38.385130545876905 H 0.0 **** 0.06
17029 H 90.48765445547888 119.94135570564139 38.52155020265033 H 0.0 **** 0.06
17030 H 90.38837170981458 121.63996525106936 39.04405606309186 H 0.0 **** 0.06
17031 C 24.271606635300287 53.56262239798161 21.06341513337378 C 0.0 **** -0.24
17032 H 23.4634754778468 54.263623615056076 21.26995167511373 H 0.0 **** 0.06
17033 H 25.058597975954555 53.686783346164134 21.808377432036536 H 0.0 **** 0.06
17034 H 24.67610113438937 53.7577407626178 20.07061301278614 H 0.0 **** 0.06
17035 H 23.88855112175301 52.54263698653688 21.10606878234455 H 0.0 **** 0.06
17036 C 18.57894965456549 5.424807713529333 92.29445490892431 C 0.0 **** -0.24
17037 H 19.496804488705408 5.552423158521151 92.86771473618495 H 0.0 **** 0.06
17038 H 18.78678669270724 5.587137057168434 91.2364298375995 H 0.0 **** 0.06
17039 H 17.835314485764883 6.14609176802017 92.63435804456901 H 0.0 **** 0.06
17040 H 18.19746842975536 4.414244794333712 92.4388422374256 H 0.0 **** 0.06
17041 C 43.76657225792238 116.62064691109279 71.24544834497094 C 0.0 **** -0.24
17042 H 44.23471850252494 116.99420593868152 72.15703864913695 H 0.0 **** 0.06
17043 H 42.92066712545932 115.98372491643576 71.50672024484211 H 0.0 **** 0.06
17044 H 44.493880535976984 116.04339287087328 70.67428329114679 H 0.0 **** 0.06
17045 H 43.41738937279166 117.46146473780053 70.64594791443304 H 0.0 **** 0.06
17046 C 95.50466305100144 123.93944794774598 35.33129880424086 C 0.0 **** -0.24
17047 H 96.42880269288463 124.09623961948287 34.77631566278044 H 0.0 **** 0.06
17048 H 94.86105982140175 124.81335798119028 35.21958351548218 H 0.0 **** 0.06
17049 H 95.73522599725504 123.79043052577839 36.38644980088957 H 0.0 **** 0.06
17050 H 94.99205589044263 123.05884405797016 34.94409504316687 H 0.0 **** 0.06
17051 C 6.128535828132726 135.35309031358207 115.25832358907851 C 0.0 **** -0.24
17052 H 5.137060048519981 135.0936864823094 114.8866900227666 H 0.0 **** 0.06
17053 H 6.280923398874425 136.42819232063624 115.16655357172033 H 0.0 **** 0.06
17054 H 6.883785879627624 134.82695039812637 114.67300206131804 H 0.0 **** 0.06
17055 H 6.212144539829488 135.061164481785 116.30496485227283 H 0.0 **** 0.06
17056 C 77.28567665060498 4.330022169473512 115.5279018698069 C 0.0 **** -0.24
17057 H 77.01489226590854 3.3337952594338454 115.87627204449552 H 0.0 **** 0.06
17058 H 78.01485196013329 4.247536370849186 114.72217952079939 H 0.0 **** 0.06
17059 H 77.71659532413076 4.898524184506822 116.35253248685444 H 0.0 **** 0.06
17060 H 76.39479608013843 4.840718674110814 115.16116764517585 H 0.0 **** 0.06
17061 C 84.57022181981576 102.28033219963152 88.25788808104244 C 0.0 **** -0.24
17062 H 83.56247212078954 102.02474997472422 87.92663070583177 H 0.0 **** 0.06
17063 H 85.26832134256688 101.516657228984 87.91567522839563 H 0.0 **** 0.06
17064 H 84.5916891470695 102.3324459959 89.34670091857794 H 0.0 **** 0.06
17065 H 84.85404086428566 103.24642109222498 87.84118670534525 H 0.0 **** 0.06
17066 C 14.096356522749403 14.826545216008697 51.9710249934444 C 0.0 **** -0.24
17067 H 13.937452618622387 13.787856471302213 52.26199635723249 H 0.0 **** 0.06
17068 H 13.138877161744261 15.279584020888947 51.710782314143884 H 0.0 **** 0.06
17069 H 14.762255399569256 14.863959226747006 51.10900241235663 H 0.0 **** 0.06
17070 H 14.544500582464138 15.371583766903505 52.80117852929622 H 0.0 **** 0.06
17071 C 3.718650497684706 111.61664932605626 88.33690658616301 C 0.0 **** -0.24
17072 H 3.3988781205955334 112.46370584154687 87.72883009937789 H 0.0 **** 0.06
17073 H 4.447489029938577 111.02556893806752 87.78188996036904 H 0.0 **** 0.06
17074 H 2.8552698678986026 110.99602641589038 88.57619541166538 H 0.0 **** 0.06
17075 H 4.171077464538683 111.98157658228706 89.25917499333427 H 0.0 **** 0.06
17076 C 108.95265805478192 76.07687800649757 122.04269147484882 C 0.0 **** -0.24
17077 H 109.13006973575908 76.00037007057446 120.97008545231091 H 0.0 **** 0.06
17078 H 108.07121353135584 75.49301761367954 122.30677977723893 H 0.0 **** 0.06
17079 H 108.79077989283735 77.1212566177818 122.30939887453543 H 0.0 **** 0.06
17080 H 109.81920346484773 75.69325507543545 122.58177271871799 H 0.0 **** 0.06
17081 C 73.60669952151169 101.257950928285 103.05026236480333 C 0.0 **** -0.24
17082 H 73.78284975547145 100.57016271829833 102.22340172346972 H 0.0 **** 0.06
17083 H 72.65000755563639 101.0266185917827 103.51802498619436 H 0.0 **** 0.06
17084 H 73.58971793976104 102.28038986678857 102.67391908034168 H 0.0 **** 0.06
17085 H 74.40566053544354 101.1531905080043 103.78477965396995 H 0.0 **** 0.06
17086 C 111.13062094054843 64.05786377223083 97.65632381317681 C 0.0 **** -0.24
17087 H 111.68717789496529 64.5495220839153 96.85762387999641 H 0.0 **** 0.06
17088 H 111.73266934168905 63.252124741998756 98.07588475208965 H 0.0 **** 0.06
17089 H 110.20491944739459 63.647826590654816 97.25226276929106 H 0.0 **** 0.06
17090 H 110.89786132849167 64.7820972451975 98.43592295737704 H 0.0 **** 0.06
17091 C 91.866548475214 126.94699357226537 90.43765474946676 C 0.0 **** -0.24
17092 H 91.52773248224236 127.26233932751089 91.4246075595128 H 0.0 **** 0.06
17093 H 92.41441349719852 127.76249591963986 89.96483773279553 H 0.0 **** 0.06
17094 H 91.00527954163789 126.6842012443328 89.82460253943611 H 0.0 **** 0.06
17095 H 92.51972583263857 126.07956307048497 90.5374032781962 H 0.0 **** 0.06
17096 C 59.53272619226226 23.62835105801748 24.550040781795424 C 0.0 **** -0.24
17097 H 58.449077147780216 23.680065685104985 24.444048271227466 H 0.0 **** 0.06
17098 H 59.855826080442995 22.59023792912548 24.472344861472365 H 0.0 **** 0.06
17099 H 59.822767334321384 24.027090680787765 25.52180046403032 H 0.0 **** 0.06
17100 H 60.00323567661579 24.21531056731404 23.761254739464597 H 0.0 **** 0.06
17101 C 133.67071190661682 69.89506562178339 119.20305754412249 C 0.0 **** -0.24
17102 H 132.78766379249387 70.32809134500164 118.73274293604334 H 0.0 **** 0.06
17103 H 134.50753492807286 70.58671535318067 119.10935103076486 H 0.0 **** 0.06
17104 H 133.91960066736942 68.954652183811 118.71142149082615 H 0.0 **** 0.06
17105 H 133.4671776670141 69.71029812924392 120.25772139511935 H 0.0 **** 0.06
17106 C 135.5082128234336 4.998277143581635 26.826819967646372 C 0.0 **** -0.24
17107 H 134.70518867848244 4.461006509136581 27.331815581056105 H 0.0 **** 0.06
17108 H 136.47097060294502 4.6297352315454 27.18073715199722 H 0.0 **** 0.06
17109 H 135.42476141925187 6.063164674739117 27.043211870917105 H 0.0 **** 0.06
17110 H 135.43000965789145 4.840009184922884 25.75070350997848 H 0.0 **** 0.06
17111 C 28.569018071182917 123.73121098280588 135.7317234706784 C 0.0 **** -0.24
17112 H 27.922973048358344 124.57854782511157 135.96213002808793 H 0.0 **** 0.06
17113 H 29.039214652693772 123.3744495778511 136.64845929269472 H 0.0 **** 0.06
17114 H 29.337455506838303 124.04210986851456 135.0251105809764 H 0.0 **** 0.06
17115 H 27.973635357331418 122.92980366219469 135.29228533749153 H 0.0 **** 0.06
17116 C 121.67175690438856 92.71081293453244 134.52071632560302 C 0.0 **** -0.24
17117 H 120.64891425980322 92.9071831942023 134.19976821101565 H 0.0 **** 0.06
17118 H 121.69159578397705 91.81252290777684 135.13869412464047 H 0.0 **** 0.06
17119 H 122.04013551419864 93.55902498525757 135.09882413360222 H 0.0 **** 0.06
17120 H 122.30541137811194 92.56489541272083 133.64653665556023 H 0.0 **** 0.06
17121 C 4.112792181707221 135.46720090398588 60.84713122134963 C 0.0 **** -0.24
17122 H 3.4332215006229774 134.80901953140537 60.304244393200435 H 0.0 **** 0.06
17123 H 4.946547130435761 134.8841508421816 61.23815854503209 H 0.0 **** 0.06
17124 H 3.5786214008364823 135.93822648051457 61.67289607334348 H 0.0 **** 0.06
17125 H 4.4902659231122755 136.23576863036592 60.17317183533379 H 0.0 **** 0.06
17126 C 10.5802157222721 2.756872591019345 104.58225847861019 C 0.0 **** -0.24
17127 H 11.15501625932123 3.082802072451557 103.71500395548398 H 0.0 **** 0.06
17128 H 11.127209373675157 1.9735971451413263 105.10747805659754 H 0.0 **** 0.06
17129 H 9.615925651235955 2.3694776582303803 104.25390673088225 H 0.0 **** 0.06
17130 H 10.422246917246099 3.6023375007956986 105.25213535032064 H 0.0 **** 0.06
17131 C 128.61347059491948 10.164556622105739 22.114060119336315 C 0.0 **** -0.24
17132 H 129.36129947534394 10.624433027657588 21.46734089142999 H 0.0 **** 0.06
17133 H 127.67144812536655 10.076641035164958 21.571475891235387 H 0.0 **** 0.06
17134 H 128.466928256017 10.784094967690347 22.998185444779622 H 0.0 **** 0.06
17135 H 128.95280600659027 9.173831239749124 22.41543817049552 H 0.0 **** 0.06
17136 C 79.00759732356349 76.11426825801607 62.7453418059674 C 0.0 **** -0.24
17137 H 79.79114736445193 75.8558990604414 63.45850925413427 H 0.0 **** 0.06
17138 H 79.46236220353227 76.46368049264652 61.81851601490155 H 0.0 **** 0.06
17139 H 78.3813392780262 76.902121814634 63.16303506913184 H 0.0 **** 0.06
17140 H 78.39784152320756 75.23460313986214 62.54164556285306 H 0.0 **** 0.06
17141 C 50.81228155716266 105.4688401072084 51.52911267754973 C 0.0 **** -0.24
17142 H 51.09758711847475 105.25533290030268 52.55887208540662 H 0.0 **** 0.06
17143 H 49.759630373721535 105.22389681183438 51.38575175513597 H 0.0 **** 0.06
17144 H 51.42074493194774 104.86990002311654 50.851083042593416 H 0.0 **** 0.06
17145 H 50.97093756438382 106.52696946631784 51.31955929215752 H 0.0 **** 0.06
17146 C 19.428988226499897 60.94253019658571 63.39216882180614 C 0.0 **** -0.24
17147 H 19.947232363620472 60.328540506095266 64.12952612300228 H 0.0 **** 0.06
17148 H 19.583565366842137 61.99627248739978 63.624997452774466 H 0.0 **** 0.06
17149 H 18.362652327955693 60.71697192216031 63.41723473811797 H 0.0 **** 0.06
17150 H 19.82326595714462 60.7267686042604 62.3993586442453 H 0.0 **** 0.06
17151 C 136.11687387686342 66.64788683374377 11.37866523244341 C 0.0 **** -0.24
17152 H 136.4526521641031 66.14253679631878 12.28351786512681 H 0.0 **** 0.06
17153 H 136.72686433153228 66.3256076450491 10.534324740196439 H 0.0 **** 0.06
17154 H 136.2139044660344 67.72621185077696 11.50743369017232 H 0.0 **** 0.06
17155 H 135.07295479709208 66.39787507849712 11.188857044697045 H 0.0 **** 0.06
17156 C 89.41031559616926 86.05959405539772 68.82499015211374 C 0.0 **** -0.24
17157 H 89.82927662887779 86.53744283971214 69.71043481099645 H 0.0 **** 0.06
17158 H 89.08971994656159 85.04831145525621 69.07416874068242 H 0.0 **** 0.06
17159 H 90.16798734684757 86.01926095132798 68.04166718185253 H 0.0 **** 0.06
17160 H 88.55481945887604 86.6363207349794 68.47271642288335 H 0.0 **** 0.06
17161 C 96.616291679057 31.783198416788565 26.70703328403124 C 0.0 **** -0.24
17162 H 96.65151482088316 31.295392920733036 25.733525125347768 H 0.0 **** 0.06
17163 H 96.73182227867824 32.85929661635927 26.579776140000746 H 0.0 **** 0.06
17164 H 97.42425397413483 31.40220324449683 27.332778228744928 H 0.0 **** 0.06
17165 H 95.6583474387485 31.57382617626709 27.184078568955186 H 0.0 **** 0.06
17166 C 96.86127108804764 19.378180172140176 52.63218704475463 C 0.0 **** -0.24
17167 H 97.5238201290142 19.893763169973134 51.9379342511657 H 0.0 **** 0.06
17168 H 96.51031111795686 20.080739986942355 53.389079995966526 H 0.0 **** 0.06
17169 H 97.40400943682587 18.564889437644965 53.11528370943812 H 0.0 **** 0.06
17170 H 96.00873135480354 18.9735995017191 52.087765800983476 H 0.0 **** 0.06
17171 C 81.83654021612256 100.06285754515085 113.61939960980501 C 0.0 **** -0.24
17172 H 81.08790674391558 100.31167977219053 114.37220006839675 H 0.0 **** 0.06
17173 H 82.62000579236229 100.8214013674525 113.62241191067756 H 0.0 **** 0.06
17174 H 81.3665936089587 100.02980356665716 112.63693401749799 H 0.0 **** 0.06
17175 H 82.27078093548823 99.0895092991085 113.84787117171172 H 0.0 **** 0.06
17176 C 17.212587487362157 20.174025581737652 39.145436630963445 C 0.0 **** -0.24
17177 H 18.272675874382287 20.375658798790006 39.29358736523386 H 0.0 **** 0.06
17178 H 16.94310374403716 20.3867720398055 38.11027790867952 H 0.0 **** 0.06
17179 H 16.624755389111385 20.806400775381945 39.81143899009203 H 0.0 **** 0.06
17180 H 17.009172782175312 19.12566719139584 39.36657066723427 H 0.0 **** 0.06
17181 C 107.38932467897665 69.7626295337027 109.47309221373052 C 0.0 **** -0.24
17182 H 107.1082546772052 70.10068680950098 108.474583277254 H 0.0 **** 0.06
17183 H 106.897994224108 68.81328973177392 109.68647775745296 H 0.0 **** 0.06
17184 H 107.0786882120103 70.50551902683878 110.20765959800838 H 0.0 **** 0.06
17185 H 108.47014256664717 69.63254532204473 109.52104865598915 H 0.0 **** 0.06
17186 C 12.979321830322732 121.0682208750896 55.236436451844526 C 0.0 **** -0.24
17187 H 13.296262072306732 120.05425124706284 54.989822180916974 H 0.0 **** 0.06
17188 H 13.762388187490295 121.77219030587878 54.95300175227777 H 0.0 **** 0.06
17189 H 12.795255829692806 121.14030684331482 56.30810774339028 H 0.0 **** 0.06
17190 H 12.063803144427073 121.30446569978221 54.69307190318648 H 0.0 **** 0.06
17191 C 95.64991448161167 36.78268307158641 135.32129243043474 C 0.0 **** -0.24
17192 H 94.7436364489699 36.21365203510095 135.5302347691897 H 0.0 **** 0.06
17193 H 95.48825714653347 37.41346273527186 134.44769930944378 H 0.0 **** 0.06
17194 H 96.47245793242615 36.09408732768584 135.126422567981 H 0.0 **** 0.06
17195 H 95.89342813141282 37.40597999321155 136.18174528513438 H 0.0 **** 0.06
17196 C 39.13726351344289 88.74725541841678 13.620234288704637 C 0.0 **** -0.24
17197 H 39.32426083317691 87.87414742014494 12.995078717877732 H 0.0 **** 0.06
17198 H 38.319390168187624 88.53262972613118 14.307206638956245 H 0.0 **** 0.06
17199 H 38.869128222238004 89.59420255137127 12.988417784010892 H 0.0 **** 0.06
17200 H 40.03611285313761 88.9869544374312 14.186657469257057 H 0.0 **** 0.06
17201 C 14.298597982923695 46.77541560789592 29.07922700942271 C 0.0 **** -0.24
17202 H 14.640399219517633 46.72119057924385 28.046210278346564 H 0.0 **** 0.06
17203 H 13.283638969220533 47.17437573426918 29.105268655969155 H 0.0 **** 0.06
17204 H 14.960553981348255 47.429264966498636 29.646818696511588 H 0.0 **** 0.06
17205 H 14.308527585116764 45.77744861231412 29.51863045430187 H 0.0 **** 0.06
17206 C 47.219504356941115 65.62948282131484 3.136408092203709 C 0.0 **** -0.24
17207 H 46.63176817160837 66.51952399260045 3.361461327763351 H 0.0 **** 0.06
17208 H 47.55184880573435 65.66725137563883 2.099400027288141 H 0.0 **** 0.06
17209 H 46.60754951381503 64.74068852200125 3.2907454915010135 H 0.0 **** 0.06
17210 H 48.087653494169786 65.5912725407365 3.7953323431264323 H 0.0 **** 0.06
17211 C 24.850408084190008 80.16899917907239 75.29904790776726 C 0.0 **** -0.24
17212 H 25.44259793763524 79.28253074408747 75.07135081712556 H 0.0 **** 0.06
17213 H 23.83056383200642 79.87059071911307 75.5446618668513 H 0.0 **** 0.06
17214 H 24.837196140966796 80.83005547743568 74.43346313535955 H 0.0 **** 0.06
17215 H 25.29020666975913 80.6913974412987 76.14840019273134 H 0.0 **** 0.06
17216 C 110.66335354733786 134.27855518629215 81.90171130447263 C 0.0 **** -0.24
17217 H 109.75313190781148 134.8533194020202 81.73054551483037 H 0.0 **** 0.06
17218 H 110.40797900502989 133.22726150800239 82.03795207808298 H 0.0 **** 0.06
17219 H 111.16548845649905 134.6493824687424 82.79551482963029 H 0.0 **** 0.06
17220 H 111.32606802807044 134.38366706368907 81.04313921148434 H 0.0 **** 0.06
17221 C 125.50127991630004 81.10956673549896 111.95639100093354 C 0.0 **** -0.24
17222 H 125.09844189835734 80.6864273665094 112.87662774779673 H 0.0 **** 0.06
17223 H 124.681447467753 81.46412526404936 111.33043322265979 H 0.0 **** 0.06
17224 H 126.06297977321319 80.34438211811181 111.42017569507618 H 0.0 **** 0.06
17225 H 126.16154169870205 81.94297298224558 112.19715745610037 H 0.0 **** 0.06
17226 C 76.66951104000474 51.037716987151214 124.4528318084644 C 0.0 **** -0.24
17227 H 75.94730814575682 51.597595198049135 123.85894005576353 H 0.0 **** 0.06
17228 H 77.47199888342547 51.70340845655522 124.77060089267522 H 0.0 **** 0.06
17229 H 77.08463754369117 50.228809862298476 123.85220773380627 H 0.0 **** 0.06
17230 H 76.17409958714536 50.62105443170191 125.32957855161249 H 0.0 **** 0.06
17231 C 16.126687302980912 112.9958566657441 38.3241419925659 C 0.0 **** -0.24
17232 H 16.773220692276652 112.70385422763988 37.49740736020346 H 0.0 **** 0.06
17233 H 16.021037479517474 112.16066386550983 39.016321268510126 H 0.0 **** 0.06
17234 H 15.145502715742339 113.27311849237236 37.936850350327894 H 0.0 **** 0.06
17235 H 16.564252542821635 113.84691480264311 38.84548808245634 H 0.0 **** 0.06
17236 C 84.62616572571156 78.57383647856881 101.10981352807248 C 0.0 **** -0.24
17237 H 85.17619276661001 79.15723833589124 101.84867252770216 H 0.0 **** 0.06
17238 H 85.33012584247172 78.03736614488918 100.47364390011705 H 0.0 **** 0.06
17239 H 84.01904408590656 79.24271652415342 100.4985861316221 H 0.0 **** 0.06
17240 H 83.9789612097121 77.86062959531421 101.61980107289267 H 0.0 **** 0.06
17241 C 32.02279806187195 114.80838632654522 66.0991638954655 C 0.0 **** -0.24
17242 H 31.79205314540561 115.68612903501256 65.49588820342262 H 0.0 **** 0.06
17243 H 33.103432173649544 114.67327784305866 66.1468785180258 H 0.0 **** 0.06
17244 H 31.56566356942796 113.92710685227635 65.64744531184957 H 0.0 **** 0.06
17245 H 31.628442188050556 114.94541915758845 67.10552886989973 H 0.0 **** 0.06
17246 C 97.06186238023207 61.10641389763076 18.746750523717992 C 0.0 **** -0.24
17247 H 97.2945877000118 62.11613067481812 18.409517688140454 H 0.0 **** 0.06
17248 H 97.6380245271988 60.38742247184214 18.162667770326664 H 0.0 **** 0.06
17249 H 95.99772417985675 60.913923420928114 18.612853791743078 H 0.0 **** 0.06
17250 H 97.31993743120366 61.00746644723007 19.801244593638557 H 0.0 **** 0.06
17251 C 60.89596412799051 60.36771635578464 136.09370643678892 C 0.0 **** -0.24
17252 H 61.1725472024533 61.40046942526095 136.3079096160485 H 0.0 **** 0.06
17253 H 61.12375444759658 59.74367210543721 136.95737846146056 H 0.0 **** 0.06
17254 H 61.458012876793475 60.01362080464557 135.23019815535798 H 0.0 **** 0.06
17255 H 59.82828263600561 60.31572058367965 135.87808922689445 H 0.0 **** 0.06
17256 C 94.20776980780936 124.09585740246814 137.04741961239642 C 0.0 **** -0.24
17257 H 94.42682936718158 123.18762810345288 136.48590334838607 H 0.0 **** 0.06
17258 H 93.62087041195456 123.84390590835659 137.93097754988767 H 0.0 **** 0.06
17259 H 93.6417617014537 124.78394204553462 136.4188255868703 H 0.0 **** 0.06
17260 H 95.14071484366912 124.56838226278745 137.35400378972963 H 0.0 **** 0.06
17261 C 112.32048177776824 131.40527537020265 79.96634248887831 C 0.0 **** -0.24
17262 H 113.09831063125552 131.93183101830965 79.41384591920908 H 0.0 **** 0.06
17263 H 111.54952353468454 132.11351484825227 80.27326982144697 H 0.0 **** 0.06
17264 H 112.7550791268396 130.93572123151577 80.84768068995093 H 0.0 **** 0.06
17265 H 111.87720244828014 130.6407538848478 79.3282928073655 H 0.0 **** 0.06
17266 C 126.69864065808748 78.76189860101236 64.85653566357769 C 0.0 **** -0.24
17267 H 127.76717469722884 78.97399870691068 64.84178569426354 H 0.0 **** 0.06
17268 H 126.1866712224514 79.51942096914406 65.44990082726753 H 0.0 **** 0.06
17269 H 126.5299652839931 77.77902877266368 65.29830896763593 H 0.0 **** 0.06
17270 H 126.31185302288789 78.7738209726212 63.83757234679683 H 0.0 **** 0.06
17271 C 91.8752375558499 81.72569563353471 9.494912604335923 C 0.0 **** -0.24
17272 H 91.23441782678862 81.88968787022172 8.628562973342468 H 0.0 **** 0.06
17273 H 92.31673574511052 82.67345675319909 9.804893772203798 H 0.0 **** 0.06
17274 H 92.6670723172071 81.02360857157286 9.232957358768317 H 0.0 **** 0.06
17275 H 91.28272433429336 81.31602933914546 10.313236313029108 H 0.0 **** 0.06
17276 C 8.924664264336599 23.91169447965664 78.40739358147106 C 0.0 **** -0.24
17277 H 8.668729945702523 24.951604439797933 78.60894490256861 H 0.0 **** 0.06
17278 H 8.118769571317472 23.264673794903736 78.75475804392836 H 0.0 **** 0.06
17279 H 9.846926793017559 23.656063994794053 78.92983590403726 H 0.0 **** 0.06
17280 H 9.064859383277678 23.773737445369797 77.33497842040249 H 0.0 **** 0.06
17281 C 33.48790864456657 129.60205866012168 18.199772343701454 C 0.0 **** -0.24
17282 H 34.437435262642225 129.07136181731636 18.130771475933486 H 0.0 **** 0.06
17283 H 33.341232859445626 129.95353320067076 19.220619972102554 H 0.0 **** 0.06
17284 H 32.67445346372463 128.9289567088628 17.926067087262368 H 0.0 **** 0.06
17285 H 33.498337481648946 130.4535951017814 17.519318086490642 H 0.0 **** 0.06
17286 C 24.252882451275127 22.101887246654563 116.20369682500444 C 0.0 **** -0.24
17287 H 24.40047393348982 21.11204869588947 116.63496174843738 H 0.0 **** 0.06
17288 H 24.89408370013632 22.21712740025795 115.32975590511415 H 0.0 **** 0.06
17289 H 24.50567015143872 22.86102049836971 116.94327177237193 H 0.0 **** 0.06
17290 H 23.21020710594371 22.21601026750102 115.9067959434121 H 0.0 **** 0.06
17291 C 60.563467901192894 107.34612659930524 24.67401154235975 C 0.0 **** -0.24
17292 H 59.828315540959295 108.04089369488243 24.269037829582018 H 0.0 **** 0.06
17293 H 60.76454617412867 106.5631996896466 23.94196229553328 H 0.0 **** 0.06
17294 H 60.17441755288735 106.897842804823 25.58832469248585 H 0.0 **** 0.06
17295 H 61.48580567977103 107.881395814288 24.896766773591686 H 0.0 **** 0.06
17296 C 80.99820493236692 92.50786794145303 57.38907889223006 C 0.0 **** -0.24
17297 H 80.54496945499338 92.96226239967838 56.50849141532491 H 0.0 **** 0.06
17298 H 80.4651985903333 92.83462724615083 58.282004791606354 H 0.0 **** 0.06
17299 H 82.04338451588225 92.81063420095941 57.45716207659122 H 0.0 **** 0.06
17300 H 80.93953337898904 91.42172791943257 57.3086262145665 H 0.0 **** 0.06
17301 C 55.270505571344586 101.78387007339738 55.92259041880433 C 0.0 **** -0.24
17302 H 55.665237138768134 102.58159756004964 56.55164597983503 H 0.0 **** 0.06
17303 H 54.99526354064807 102.19096769736609 54.95014280253429 H 0.0 **** 0.06
17304 H 54.390018082533516 101.3491511735272 56.397567684172884 H 0.0 **** 0.06
17305 H 56.03061605263281 101.01403257882663 55.79304001061462 H 0.0 **** 0.06
17306 C 109.96910557032672 102.5678595109191 5.710792552311954 C 0.0 **** -0.24
17307 H 109.27897621469563 102.47395944625572 6.54928603183123 H 0.0 **** 0.06
17308 H 109.87377572425316 101.69630226750468 5.0624397947972355 H 0.0 **** 0.06
17309 H 110.99042358069909 102.63227839346206 6.086433075153625 H 0.0 **** 0.06
17310 H 109.73269590955331 103.47019717978958 5.1451041589892625 H 0.0 **** 0.06
17311 C 94.45324860257853 23.07661168291323 40.18399106737664 C 0.0 **** -0.24
17312 H 94.69552911335592 22.015447525162067 40.24718819443348 H 0.0 **** 0.06
17313 H 93.6277050827352 23.301787249690875 40.85897396353283 H 0.0 **** 0.06
17314 H 94.16420711870109 23.322431320293646 39.162010733485516 H 0.0 **** 0.06
17315 H 95.32505377224346 23.665589524829002 40.466637225432066 H 0.0 **** 0.06
17316 C 37.236011134478865 113.68640690476622 11.505250168196312 C 0.0 **** -0.24
17317 H 36.60687615974053 113.06155594673876 12.13884349719325 H 0.0 **** 0.06
17318 H 38.166775057149664 113.16280878053502 11.287618428221606 H 0.0 **** 0.06
17319 H 37.45646942582756 114.62140588505466 12.021168913684562 H 0.0 **** 0.06
17320 H 36.71357992011311 113.90130676563356 10.572486646661162 H 0.0 **** 0.06
17321 C 118.45899709413061 21.993027791504886 119.24181368156204 C 0.0 **** -0.24
17322 H 117.57609838862516 22.169169844497247 118.62789114247798 H 0.0 **** 0.06
17323 H 119.15014526045229 22.829392965266976 119.13244906731532 H 0.0 **** 0.06
17324 H 118.94675225592368 21.0728747425174 118.92107500185517 H 0.0 **** 0.06
17325 H 118.161546703358 21.902091601626054 120.28678782704796 H 0.0 **** 0.06
17326 C 79.97116327078214 28.615106440539904 83.50264814640339 C 0.0 **** -0.24
17327 H 79.30091846680611 29.364726793767176 83.92506306056367 H 0.0 **** 0.06
17328 H 80.79648803095986 28.43722683931125 84.19173952535193 H 0.0 **** 0.06
17329 H 80.36246306497628 28.97313294508669 82.55078864028405 H 0.0 **** 0.06
17330 H 79.4216573939832 27.686630447640766 83.34460155338907 H 0.0 **** 0.06
17331 C 27.3553340586856 28.520482066382883 109.9687442631614 C 0.0 **** -0.24
17332 H 27.513530976576135 27.75506207402148 110.72815588344952 H 0.0 **** 0.06
17333 H 27.028979166627096 28.051068622812252 109.04059741323147 H 0.0 **** 0.06
17334 H 28.28748526168826 29.058148067956807 109.79637997250867 H 0.0 **** 0.06
17335 H 26.591267416240697 29.218816641209145 110.310639073505 H 0.0 **** 0.06
17336 C 134.01078065688682 113.6273540747554 117.07747053349854 C 0.0 **** -0.24
17337 H 134.3126803649107 112.95334331389387 116.27649108845108 H 0.0 **** 0.06
17338 H 133.9225620861618 113.06785796752084 118.00984103160019 H 0.0 **** 0.06
17339 H 133.0481704835659 114.07630168892487 116.83087005365275 H 0.0 **** 0.06
17340 H 134.75870148119162 114.41201322312145 117.19366668361926 H 0.0 **** 0.06
17341 C 57.265346130022294 94.72565003702096 101.58693756521942 C 0.0 **** -0.24
17342 H 57.782959843051344 95.06884874958678 102.48232279973371 H 0.0 **** 0.06
17343 H 57.26043768130131 93.63587835390302 101.56682179164397 H 0.0 **** 0.06
17344 H 57.7793150779421 95.10250447761439 100.70286703785979 H 0.0 **** 0.06
17345 H 56.23934390590529 95.09325674691928 101.59603675869897 H 0.0 **** 0.06
17346 C 32.65724307566967 84.39310746753732 80.02482273740613 C 0.0 **** -0.24
17347 H 33.22079498127579 85.31721045232905 79.89220285444193 H 0.0 **** 0.06
17348 H 33.347340475670876 83.57040506821501 80.21177299516758 H 0.0 **** 0.06
17349 H 32.08112485352288 84.1864897253601 79.12242980620309 H 0.0 **** 0.06
17350 H 31.9794339412787 84.49964385802562 80.87245820763185 H 0.0 **** 0.06
17351 C 69.30943649525032 55.0663977990107 71.1126084738738 C 0.0 **** -0.24
17352 H 68.9239485807733 54.053560701702736 70.9936918386185 H 0.0 **** 0.06
17353 H 69.19688332758986 55.61071003183713 70.17479716296761 H 0.0 **** 0.06
17354 H 70.36444518786935 55.02358372689673 71.38304085228832 H 0.0 **** 0.06
17355 H 68.75341987530051 55.57746995920661 71.8990605462781 H 0.0 **** 0.06
17356 C 122.05208080245814 103.59695669788937 6.679950872154365 C 0.0 **** -0.24
17357 H 122.71931651574039 102.95347077113945 6.106241501858506 H 0.0 **** 0.06
17358 H 121.0203507996178 103.2820002477606 6.521153096046504 H 0.0 **** 0.06
17359 H 122.17214131013168 104.62865458784876 6.350452819193748 H 0.0 **** 0.06
17360 H 122.29744826446193 103.52232428502566 7.739086768774797 H 0.0 **** 0.06
17361 C 40.77107661197874 79.4782469427962 12.34511819344715 C 0.0 **** -0.24
17362 H 40.22586738651461 80.42092303466472 12.307532143716301 H 0.0 **** 0.06
17363 H 41.82574306948845 79.67615086710953 12.53752344479501 H 0.0 **** 0.06
17364 H 40.66686737136581 78.96045607107857 11.390936779527728 H 0.0 **** 0.06
17365 H 40.36551282253919 78.85566198058862 13.141677023507228 H 0.0 **** 0.06
17366 C 107.49906558809138 74.83237255740022 96.7158909931214 C 0.0 **** -0.24
17367 H 106.60789264472763 75.4482124644025 96.82611322179105 H 0.0 **** 0.06
17368 H 107.32376704457006 74.07076013758774 95.95615880437435 H 0.0 **** 0.06
17369 H 107.72780117485524 74.35100346672033 97.66726838433891 H 0.0 **** 0.06
17370 H 108.33866980626824 75.45928498976286 96.41523066594107 H 0.0 **** 0.06
17371 C 75.49519282996039 89.81404740570974 11.493542601405082 C 0.0 **** -0.24
17372 H 74.54847843204482 90.26958723091752 11.202729276264847 H 0.0 **** 0.06
17373 H 75.92018388992017 90.36352551132666 12.333783931589736 H 0.0 **** 0.06
17374 H 76.18624376135743 89.84444892066108 10.651815586313603 H 0.0 **** 0.06
17375 H 75.324385675736 88.77767355377495 11.786790397075507 H 0.0 **** 0.06
17376 C 38.69770516448193 99.31567177347608 63.51211532053135 C 0.0 **** -0.24
17377 H 39.034641503147554 98.53997291162364 64.19953820824024 H 0.0 **** 0.06
17378 H 39.35493795811249 99.34191480829628 62.64309379727641 H 0.0 **** 0.06
17379 H 38.72046159944432 100.28158359407905 64.01522613617522 H 0.0 **** 0.06
17380 H 37.67911577588768 99.09672666002677 63.190412358068016 H 0.0 **** 0.06
17381 C 74.24966098396033 37.37300118145538 118.45228698506406 C 0.0 **** -0.24
17382 H 74.24532715686189 37.726040789133734 119.48315277645935 H 0.0 **** 0.06
17383 H 73.5576660740669 36.536344591763196 118.35181859944836 H 0.0 **** 0.06
17384 H 75.25444089027084 37.04833482498404 118.18277977444677 H 0.0 **** 0.06
17385 H 73.93915174581917 38.18136617040442 117.79007090755337 H 0.0 **** 0.06
17386 C 129.0522225341687 73.05853569406446 2.7713935281933892 C 0.0 **** -0.24
17387 H 128.58292077565642 72.3714761130774 2.068518026209201 H 0.0 **** 0.06
17388 H 128.406155863836 73.18778115839687 3.640214895847155 H 0.0 **** 0.06
17389 H 129.2082544865182 74.02307798546079 2.2875471766489603 H 0.0 **** 0.06
17390 H 130.01195879606252 72.65287186771756 3.0901351007600937 H 0.0 **** 0.06
17391 C 65.16352173839911 1.9395682008994868 33.28749770143978 C 0.0 **** -0.24
17392 H 66.04122298321396 2.505292185164933 33.60243107389787 H 0.0 **** 0.06
17393 H 65.45963302131733 1.1886813947810708 32.554327040278686 H 0.0 **** 0.06
17394 H 64.43615012498041 2.6176099763511047 32.840733823368254 H 0.0 **** 0.06
17395 H 64.71881866180647 1.4480864649166278 34.15233173138324 H 0.0 **** 0.06
17396 C 90.62420796032086 127.8718440721727 34.36385424614346 C 0.0 **** -0.24
17397 H 91.71178151694221 127.87851770852784 34.43723196738176 H 0.0 **** 0.06
17398 H 90.33167902710483 127.86909599125569 33.31345033742912 H 0.0 **** 0.06
17399 H 90.22224020180619 128.75931086763347 34.851707325444494 H 0.0 **** 0.06
17400 H 90.23317862130642 126.97957300165784 34.85283835338254 H 0.0 **** 0.06
17401 C 3.2651214521550855 45.00487370808531 108.87334502769927 C 0.0 **** -0.24
17402 H 2.725601643261882 45.75309961961068 108.291481222975 H 0.0 **** 0.06
17403 H 3.499412567100592 44.15182086185453 108.23757658230505 H 0.0 **** 0.06
17404 H 2.64339381359963 44.676748152021645 109.70772355762654 H 0.0 **** 0.06
17405 H 4.18786544620616 45.43886384871058 109.25617405020336 H 0.0 **** 0.06
17406 C 118.11560784660594 125.39350409607967 79.73436977008369 C 0.0 **** -0.24
17407 H 118.23706530968721 125.17871737225624 80.79592466504906 H 0.0 **** 0.06
17408 H 119.02528230584016 125.11891715586788 79.20205936539114 H 0.0 **** 0.06
17409 H 117.92120414054679 126.45771314329541 79.59979495603201 H 0.0 **** 0.06
17410 H 117.27653664349316 124.81911752993915 79.34200432598327 H 0.0 **** 0.06
17411 C 133.32468737188483 52.982036112248466 27.01882722244744 C 0.0 **** -0.24
17412 H 132.81210265039914 52.83456352528469 26.06881366941866 H 0.0 **** 0.06
17413 H 134.35538805563422 52.63676618977013 26.932410293167152 H 0.0 **** 0.06
17414 H 132.81548148246662 52.41568688152114 27.797943981865245 H 0.0 **** 0.06
17415 H 133.3164663138273 54.041858048966105 27.274729488409662 H 0.0 **** 0.06
17416 C 10.09158804390782 64.31981587050747 37.44210746379673 C 0.0 **** -0.24
17417 H 10.917082089485433 65.03148167909265 37.433597832166214 H 0.0 **** 0.06
17418 H 10.465300803178224 63.326757829595564 37.19386658781923 H 0.0 **** 0.06
17419 H 9.34484154821456 64.62129724758202 36.70629852305319 H 0.0 **** 0.06
17420 H 9.637906676945704 64.30063251038217 38.43274627420004 H 0.0 **** 0.06
17421 C 51.78633016390637 74.55324895173248 98.55724677251082 C 0.0 **** -0.24
17422 H 51.27787638441498 73.61237245860576 98.34437289816762 H 0.0 **** 0.06
17423 H 51.73232021844922 74.76095150089935 99.62613061109322 H 0.0 **** 0.06
17424 H 51.30376491685709 75.3593681777835 98.00505512561703 H 0.0 **** 0.06
17425 H 52.83033870119692 74.47847771387785 98.25263799309172 H 0.0 **** 0.06
17426 C 22.1919337309929 46.59841161346216 27.71568247597793 C 0.0 **** -0.24
17427 H 21.90748792438211 45.64884587182489 28.168019192498434 H 0.0 **** 0.06
17428 H 23.262370126917517 46.595553726918595 27.509911194220876 H 0.0 **** 0.06
17429 H 21.955156358140982 47.412046691200985 28.401157122006452 H 0.0 **** 0.06
17430 H 21.64281663047973 46.7363602385641 26.784776141118982 H 0.0 **** 0.06
17431 C 62.146543301639255 132.32661194509637 4.017742641620686 C 0.0 **** -0.24
17432 H 62.7513913325281 131.5203389937236 3.6029320296262313 H 0.0 **** 0.06
17433 H 61.486239732712775 131.92637764653807 4.787810051312363 H 0.0 **** 0.06
17434 H 61.54858743499453 132.77701792962864 3.2247512508903355 H 0.0 **** 0.06
17435 H 62.79910978780774 133.0824651499182 4.45437058595229 H 0.0 **** 0.06
17436 C 8.893559721061024 30.034759227888742 66.05921230612245 C 0.0 **** -0.24
17437 H 8.443099325586047 30.924553569477723 66.49958435971388 H 0.0 **** 0.06
17438 H 8.49900441075414 29.146408853911623 66.55363807140856 H 0.0 **** 0.06
17439 H 9.975443678783734 30.072576487407275 66.18900463533478 H 0.0 **** 0.06
17440 H 8.656526623820184 29.994941491734266 64.99591181551642 H 0.0 **** 0.06
17441 C 65.10350523080713 41.186935021619746 44.29892174071645 C 0.0 **** -0.24
17442 H 66.0349086204602 41.73409353689631 44.44495034119285 H 0.0 **** 0.06
17443 H 64.73802130048507 41.35532135263045 43.28616531435256 H 0.0 **** 0.06
17444 H 64.36110704335466 41.535863216314816 45.016745612931416 H 0.0 **** 0.06
17445 H 65.28106542043763 40.122197716666214 44.44869787455988 H 0.0 **** 0.06
17446 C 13.452300414768079 28.646135644385765 17.091197389457648 C 0.0 **** -0.24
17447 H 13.454176834464256 29.26634429560832 17.98717380597884 H 0.0 **** 0.06
17448 H 12.926902597720986 29.167584501714387 16.290305171931124 H 0.0 **** 0.06
17449 H 12.949310163491624 27.702686551224247 17.302281867116562 H 0.0 **** 0.06
17450 H 14.479640570994405 28.448510221343838 16.78404190594631 H 0.0 **** 0.06
17451 C 74.23465847524415 122.1321049888234 67.5510354340613 C 0.0 **** -0.24
17452 H 73.30892343870596 122.69621333865379 67.43760936968621 H 0.0 **** 0.06
17453 H 74.72666611225543 122.4254954116102 68.47840246464466 H 0.0 **** 0.06
17454 H 74.89288974824896 122.34048529349043 66.70721416710327 H 0.0 **** 0.06
17455 H 74.00878863008154 121.06645686266492 67.58063134840563 H 0.0 **** 0.06
17456 C 51.1566472129694 41.55366683476493 28.51094885624275 C 0.0 **** -0.24
17457 H 51.455277733128696 42.335908640666524 27.812397730286193 H 0.0 **** 0.06
17458 H 51.566221543496624 41.77286879262925 29.4971209721121 H 0.0 **** 0.06
17459 H 51.53554009939671 40.59265064500245 28.163627522505806 H 0.0 **** 0.06
17460 H 50.068723808056035 41.51550400539202 28.570213904165144 H 0.0 **** 0.06
17461 C 29.895179262218022 19.14752570343083 105.38418248253316 C 0.0 **** -0.24
17462 H 29.588400570188753 20.023621076637497 105.95474777348278 H 0.0 **** 0.06
17463 H 29.485054846738848 18.249811681839958 105.84771630080189 H 0.0 **** 0.06
17464 H 30.98369499527135 19.08531976606858 105.37153262548432 H 0.0 **** 0.06
17465 H 29.52420031499028 19.230723362086138 104.36318650793828 H 0.0 **** 0.06
17466 C 117.42521481999762 22.97922367172484 129.08931639308582 C 0.0 **** -0.24
17467 H 117.88717996687308 23.583707875326354 129.86944976689955 H 0.0 **** 0.06
17468 H 117.7395617570196 21.9415098811794 129.20132156657047 H 0.0 **** 0.06
17469 H 117.73405714528758 23.348766248547918 128.1119547807996 H 0.0 **** 0.06
17470 H 116.34028793349017 23.041354127462995 129.17641712949396 H 0.0 **** 0.06
17471 C 97.01341055154253 27.118119693959585 51.16003295645079 C 0.0 **** -0.24
17472 H 96.69606359538044 26.175262004326925 50.715034832501615 H 0.0 **** 0.06
17473 H 97.26314851587853 26.95867991884586 52.2093941947134 H 0.0 **** 0.06
17474 H 96.20436248742965 27.845272430654973 51.08552641660113 H 0.0 **** 0.06
17475 H 97.88950521541592 27.492626575020125 50.63130640812574 H 0.0 **** 0.06
17476 C 10.90685328933921 27.205365010150643 112.55157329046625 C 0.0 **** -0.24
17477 H 11.042901061065237 28.28240067127834 112.65134436497274 H 0.0 **** 0.06
17478 H 11.824636225945113 26.69446182268615 112.8435844204937 H 0.0 **** 0.06
17479 H 10.670809091706303 26.963937710123048 111.51437652262877 H 0.0 **** 0.06
17480 H 10.089072327409156 26.88101915743016 113.19456481110183 H 0.0 **** 0.06
17481 C 52.23573443214309 75.9300711889866 103.43488535999472 C 0.0 **** -0.24
17482 H 52.856173385912825 76.82535952535972 103.47512664936411 H 0.0 **** 0.06
17483 H 52.18163539831602 75.57297555818872 102.40654881080437 H 0.0 **** 0.06
17484 H 51.23303999620087 76.16660698336452 103.79120089066225 H 0.0 **** 0.06
17485 H 52.673470967226464 75.15677004257185 104.06643515325723 H 0.0 **** 0.06
17486 C 79.42285191533098 81.13458968779682 116.5392015433134 C 0.0 **** -0.24
17487 H 79.57684623947382 80.12198444203547 116.9106626829379 H 0.0 **** 0.06
17488 H 78.76311803082493 81.10746115432647 115.67127334298846 H 0.0 **** 0.06
17489 H 80.38183827378826 81.56715332903532 116.25455104175862 H 0.0 **** 0.06
17490 H 78.96803942754073 81.74304295054111 117.3216984114548 H 0.0 **** 0.06
17491 C 54.264092644221336 11.032610825099198 119.91696679401926 C 0.0 **** -0.24
17492 H 55.01931482446713 10.727704654660727 120.64139812187258 H 0.0 **** 0.06
17493 H 53.870550402320475 12.010507661572262 120.192261707273 H 0.0 **** 0.06
17494 H 53.45357887170948 10.30323054704769 119.90842641614609 H 0.0 **** 0.06
17495 H 54.71302917535189 11.087221478943206 118.92487266510933 H 0.0 **** 0.06
17496 C 41.15426906221461 107.84647294994652 60.40261792475036 C 0.0 **** -0.24
17497 H 41.279311532878936 107.23411723945192 61.29556188704058 H 0.0 **** 0.06
17498 H 41.83324307263376 108.69797307205643 60.447871623369565 H 0.0 **** 0.06
17499 H 40.12586807824668 108.20258705706159 60.34757075607814 H 0.0 **** 0.06
17500 H 41.37941405664036 107.24914763308722 59.5183949232177 H 0.0 **** 0.06
17501 C 69.62846409488772 103.68108266307047 55.39561293940744 C 0.0 **** -0.24
17502 H 69.88143904692818 104.74108122891384 55.413799957636684 H 0.0 **** 0.06
17503 H 69.38796616892391 103.34746395269994 56.406056139096734 H 0.0 **** 0.06
17504 H 70.47671617890406 103.11183480119283 55.01726882164667 H 0.0 **** 0.06
17505 H 68.76649164815072 103.5251810917332 54.74671982409859 H 0.0 **** 0.06
17506 C 118.29576169752735 64.74195638351274 42.8029614802268 C 0.0 **** -0.24
17507 H 117.2131470552143 64.62091096085602 42.85380102035879 H 0.0 **** 0.06
17508 H 118.76974010864666 64.07199208341109 43.520267803323804 H 0.0 **** 0.06
17509 H 118.55677944860105 65.77311945730821 43.03921234443422 H 0.0 **** 0.06
17510 H 118.64004091320734 64.50110971101034 41.79795715547111 H 0.0 **** 0.06
17511 C 34.18435029742969 14.612491319126207 62.48835841820505 C 0.0 **** -0.24
17512 H 34.2899576157931 15.314182718651296 61.66085292297333 H 0.0 **** 0.06
17513 H 33.802616337194365 13.663139607831852 62.113029812144475 H 0.0 **** 0.06
17514 H 33.49017500826437 15.019739075653547 63.22327268660274 H 0.0 **** 0.06
17515 H 35.156519311782745 14.45498727003104 62.955861318040434 H 0.0 **** 0.06
17516 C 96.027820860774 10.460890088186545 36.79669911913721 C 0.0 **** -0.24
17517 H 96.73160721633297 10.01063735551972 36.09753301050099 H 0.0 **** 0.06
17518 H 95.35383481244064 9.693362149513064 37.178084442266766 H 0.0 **** 0.06
17519 H 95.44930903754083 11.23041848819156 36.284931394376024 H 0.0 **** 0.06
17520 H 96.57527587150588 10.908493880714104 37.62622001743051 H 0.0 **** 0.06
17521 C 82.84026305711458 84.95503992605697 69.94280788042948 C 0.0 **** -0.24
17522 H 82.02679399973782 85.02470091619693 70.66529838070562 H 0.0 **** 0.06
17523 H 83.26525949754091 83.95148035965434 69.96879440180959 H 0.0 **** 0.06
17524 H 83.6124768957831 85.68255797502968 70.19410126955847 H 0.0 **** 0.06
17525 H 82.45742379786931 85.16308388441985 68.94422897814007 H 0.0 **** 0.06
17526 C 22.607737188484236 48.516620083873875 130.61547569393798 C 0.0 **** -0.24
17527 H 23.38896010676308 49.27580485392002 130.66978378791168 H 0.0 **** 0.06
17528 H 21.733210879296394 48.930592711598194 130.11374424117858 H 0.0 **** 0.06
17529 H 22.33507772669202 48.204762801429354 131.62434584220205 H 0.0 **** 0.06
17530 H 22.975498844144255 47.65692050909698 130.05671277859418 H 0.0 **** 0.06
17531 C 71.76961848118246 30.47224127639514 78.32962620686752 C 0.0 **** -0.24
17532 H 70.86524436963776 30.958332407858705 78.69442190416004 H 0.0 **** 0.06
17533 H 72.29389260104475 30.006949828219945 79.16514499172513 H 0.0 **** 0.06
17534 H 72.41712250196919 31.21444661191478 77.86164127876623 H 0.0 **** 0.06
17535 H 71.50262343868893 29.709339341280582 77.59820337772226 H 0.0 **** 0.06
17536 C 115.90614485448614 58.33151169663097 5.700282001080041 C 0.0 **** -0.24
17537 H 115.79793361804357 57.384326414569955 5.171831972376282 H 0.0 **** 0.06
17538 H 116.72252780129742 58.903205174763514 5.257159460678707 H 0.0 **** 0.06
17539 H 116.12507285630176 58.1384890020783 6.749433434126161 H 0.0 **** 0.06
17540 H 114.97969788964457 58.90002616102805 5.6203421629788295 H 0.0 **** 0.06
17541 C 136.31013743427565 46.54931307303943 137.0285056306306 C 0.0 **** -0.24
17542 H 136.84011130963256 46.0182916187656 137.81925652078002 H 0.0 **** 0.06
17543 H 136.106704074967 47.570336377319165 137.3498828209734 H 0.0 **** 0.06
17544 H 135.3696874781968 46.0399901428915 136.8171194554243 H 0.0 **** 0.06
17545 H 136.9237808576921 46.56622617235399 136.1281258600904 H 0.0 **** 0.06
17546 C 112.47386194309414 16.835347195929913 116.89056643391442 C 0.0 **** -0.24
17547 H 113.06268248995991 17.604522403121948 117.39037132390027 H 0.0 **** 0.06
17548 H 113.14024228815393 16.152338542755388 116.36377190467863 H 0.0 **** 0.06
17549 H 111.79581922448145 17.303981351788714 116.17801319750328 H 0.0 **** 0.06
17550 H 111.8960834318101 16.281909397903213 117.6317699973317 H 0.0 **** 0.06
17551 C 66.28181223513234 19.55227018160474 85.95727221438037 C 0.0 **** -0.24
17552 H 66.83394497284154 19.985220477852295 85.12330607083629 H 0.0 **** 0.06
17553 H 66.84511830925554 18.716139232252146 86.37089563843134 H 0.0 **** 0.06
17554 H 65.31185788202718 19.199264407818532 85.60713433490625 H 0.0 **** 0.06
17555 H 66.13551156118581 20.309536364649944 86.72816270608553 H 0.0 **** 0.06
17556 C 111.33198693018443 115.77738582306301 111.26638368820139 C 0.0 **** -0.24
17557 H 111.373902301226 116.84230838683808 111.03682080824879 H 0.0 **** 0.06
17558 H 110.59978064967262 115.29429628360322 110.6180677151861 H 0.0 **** 0.06
17559 H 111.04042932351751 115.64169560566842 112.30797641063936 H 0.0 **** 0.06
17560 H 112.31305268986068 115.33242073905106 111.10268862738394 H 0.0 **** 0.06
17561 C 94.34766301875692 82.3490290193393 135.44916547081476 C 0.0 **** -0.24
17562 H 95.35985166721474 82.52125892845538 135.81536223327606 H 0.0 **** 0.06
17563 H 94.38728415900525 82.04205457053332 134.40380336262325 H 0.0 **** 0.06
17564 H 93.76921554736583 83.26958842413464 135.5352469959726 H 0.0 **** 0.06
17565 H 93.87519240074465 81.56563136106783 136.04071228110945 H 0.0 **** 0.06
17566 C 116.16727533743864 96.14185534129291 10.08812612240962 C 0.0 **** -0.24
17567 H 115.71926451274015 95.39702628994746 9.430634653197615 H 0.0 **** 0.06
17568 H 115.9603457504985 95.88156336755293 11.125830928166465 H 0.0 **** 0.06
17569 H 115.74268285646812 97.12140496058765 9.867887979715306 H 0.0 **** 0.06
17570 H 117.24459515595547 96.16813619296701 9.927376804745109 H 0.0 **** 0.06
17571 C 107.07662789155424 11.880710629300665 116.45357717928351 C 0.0 **** -0.24
17572 H 106.41635375886432 11.158786567114248 116.93547015301627 H 0.0 **** 0.06
17573 H 106.48831337257657 12.719128531332615 116.08136556356223 H 0.0 **** 0.06
17574 H 107.59298342365877 11.400671686665675 115.62258402826015 H 0.0 **** 0.06
17575 H 107.80810928893163 12.241994319529141 117.17671142780986 H 0.0 **** 0.06
17576 C 20.40566073500188 14.25481534675663 67.69880179139307 C 0.0 **** -0.24
17577 H 20.726231310307952 13.518975618643424 68.43567587915967 H 0.0 **** 0.06
17578 H 19.58505527862755 13.84427200593936 67.10947254112335 H 0.0 **** 0.06
17579 H 21.240616995888907 14.497080243013457 67.04023524838215 H 0.0 **** 0.06
17580 H 20.071201849666593 15.157948567933573 68.20847586623012 H 0.0 **** 0.06
17581 C 4.151766084731349 62.47887469626693 116.41377926280498 C 0.0 **** -0.24
17582 H 3.471730064835498 62.62204401365679 115.57414743160203 H 0.0 **** 0.06
17583 H 5.17702231065843 62.429704280877075 116.04728234145222 H 0.0 **** 0.06
17584 H 3.9044738910994283 61.54921785452211 116.92651779199406 H 0.0 **** 0.06
17585 H 4.053094604206166 63.31309653857551 117.10778998463141 H 0.0 **** 0.06
17586 C 95.57628237848428 74.19840183862847 46.301765141892815 C 0.0 **** -0.24
17587 H 94.58375455485782 74.64718524947813 46.34032712847676 H 0.0 **** 0.06
17588 H 96.30805345648963 74.90053264725687 46.69938859229279 H 0.0 **** 0.06
17589 H 95.82561985052388 73.95824727329021 45.267494026957934 H 0.0 **** 0.06
17590 H 95.58485638381228 73.28634374087443 46.89805663611554 H 0.0 **** 0.06
17591 C 60.21213230818469 128.47383987842753 7.889001098550068 C 0.0 **** -0.24
17592 H 61.094162417184634 128.38090109350873 8.52176509884157 H 0.0 **** 0.06
17593 H 59.341645127455536 128.69158167131798 8.509253243794262 H 0.0 **** 0.06
17594 H 60.05077939634151 127.5393059191843 7.351371491776462 H 0.0 **** 0.06
17595 H 60.36134331172377 129.28256747778295 7.174411177980261 H 0.0 **** 0.06
17596 C 65.13544190344737 79.16165760102433 5.769503698222138 C 0.0 **** -0.24
17597 H 65.69109170001903 78.37999070785145 6.287147605864561 H 0.0 **** 0.06
17598 H 64.76261418402879 79.88341079880945 6.497057770961817 H 0.0 **** 0.06
17599 H 64.2960140259551 78.71862479337972 5.234687114621238 H 0.0 **** 0.06
17600 H 65.79321337359166 79.66620282463396 5.061589236763609 H 0.0 **** 0.06
17601 C 35.32559697343021 66.93297058926933 59.130185213006285 C 0.0 **** -0.24
17602 H 35.04997759739916 65.95227410479944 59.51751635136971 H 0.0 **** 0.06
17603 H 35.367713358738825 66.89442998660665 58.04126972716749 H 0.0 **** 0.06
17604 H 36.30185860099391 67.21673376027906 59.52214913914045 H 0.0 **** 0.06
17605 H 34.582275370309375 67.6676650538354 59.44008053539483 H 0.0 **** 0.06
17606 C 6.516022603600543 3.3540537424906347 132.00403215608563 C 0.0 **** -0.24
17607 H 5.602517364137203 3.625113985607925 131.47577129818427 H 0.0 **** 0.06
17608 H 6.318345535596098 2.506105016504762 132.65979186609536 H 0.0 **** 0.06
17609 H 6.856225322689447 4.201734255378597 132.5984351315622 H 0.0 **** 0.06
17610 H 7.2865637291110374 3.084503941871276 131.2816158295958 H 0.0 **** 0.06
17611 C 63.13995329508725 115.03148667945393 69.08267941454011 C 0.0 **** -0.24
17612 H 62.48041276898442 115.89536481969557 69.00677245900937 H 0.0 **** 0.06
17613 H 63.99231960055738 115.28013391695657 69.7146915031044 H 0.0 **** 0.06
17614 H 63.49138156983406 114.75537181023356 68.08871925949813 H 0.0 **** 0.06
17615 H 62.594004882098716 114.1952013543571 69.52087150650141 H 0.0 **** 0.06
17616 C 39.23043650725553 40.02725094634974 105.32753891103552 C 0.0 **** -0.24
17617 H 40.191017552448784 39.72668648760276 104.90922668229867 H 0.0 **** 0.06
17618 H 38.63158500839482 40.506525520508774 104.55278033653083 H 0.0 **** 0.06
17619 H 39.39291062035948 40.72677014703709 106.14701134696466 H 0.0 **** 0.06
17620 H 38.70600919342414 39.14727664949942 105.69975696946075 H 0.0 **** 0.06
17621 C 103.18673763707855 48.582968785276506 93.20405454454779 C 0.0 **** -0.24
17622 H 103.17992054690811 48.72103736610035 94.28486378626702 H 0.0 **** 0.06
17623 H 102.8857460301051 49.509944240541074 92.71681273416138 H 0.0 **** 0.06
17624 H 102.49147291244341 47.78814016102709 92.93563055038994 H 0.0 **** 0.06
17625 H 104.19152563798056 48.31151269296947 92.88014448018167 H 0.0 **** 0.06
17626 C 39.97479933450114 7.615157769212711 98.27981875938544 C 0.0 **** -0.24
17627 H 40.03906108447677 8.700338696428798 98.36035974674284 H 0.0 **** 0.06
17628 H 40.32883881571735 7.303321536574227 97.29681911169273 H 0.0 **** 0.06
17629 H 38.93926127102932 7.301928109834261 98.41075820345107 H 0.0 **** 0.06
17630 H 40.59364591381376 7.156089299713983 99.050777975556 H 0.0 **** 0.06
17631 C 49.4282507354022 23.436525413193806 82.79674089122481 C 0.0 **** -0.24
17632 H 49.58642958109367 22.374338177186303 82.98610254903947 H 0.0 **** 0.06
17633 H 49.05929046387703 23.571839064573055 81.77953312270938 H 0.0 **** 0.06
17634 H 50.36921714432667 23.971271593434267 82.91724690537367 H 0.0 **** 0.06
17635 H 48.69563574102307 23.825346003830248 83.50367996927275 H 0.0 **** 0.06
17636 C 100.48064605566674 116.28320530046571 27.8893635658128 C 0.0 **** -0.24
17637 H 100.64439443537808 115.740895666894 26.959433095701044 H 0.0 **** 0.06
17638 H 100.81962934694691 115.6756418806273 28.728816429150342 H 0.0 **** 0.06
17639 H 99.4178773653476 116.4990468634299 28.002550262371244 H 0.0 **** 0.06
17640 H 101.04022839743226 117.21860244459182 27.867618009826913 H 0.0 **** 0.06
17641 C 122.46832820560059 133.57941621852018 65.94818156095101 C 0.0 **** -0.24
17642 H 122.83497337969783 132.56624810633411 66.11192141019613 H 0.0 **** 0.06
17643 H 122.87981412506304 133.96809700456788 65.01654715984884 H 0.0 **** 0.06
17644 H 122.77879661041737 134.21597336053082 66.77676012576218 H 0.0 **** 0.06
17645 H 121.37994606754103 133.56666789159112 65.88819927699383 H 0.0 **** 0.06
17646 C 100.26626290048387 108.97302635756357 50.014917712193736 C 0.0 **** -0.24
17647 H 100.76874255273259 109.5224826105678 49.21921609702365 H 0.0 **** 0.06
17648 H 100.83665993101476 109.06808441718324 50.93836625455309 H 0.0 **** 0.06
17649 H 100.19294015329609 107.92040147468374 49.73961834294158 H 0.0 **** 0.06
17650 H 99.26557858289902 109.38019646102384 50.161114446270474 H 0.0 **** 0.06
17651 C 66.18944318969488 50.274957926441175 42.42248220259992 C 0.0 **** -0.24
17652 H 66.63724283726094 49.482346126433015 43.0200363563074 H 0.0 **** 0.06
17653 H 65.11115093275822 50.12583015217871 42.370149054374 H 0.0 **** 0.06
17654 H 66.60836598768276 50.25241541899368 41.41617627884165 H 0.0 **** 0.06
17655 H 66.40125443919504 51.24091682997556 42.88210759767921 H 0.0 **** 0.06
17656 C 135.15829747617124 59.67866483811714 119.77683573881467 C 0.0 **** -0.24
17657 H 135.47674902815464 59.636466928309645 118.73541651929796 H 0.0 **** 0.06
17658 H 134.29525731985314 59.02784680752487 119.91913003549419 H 0.0 **** 0.06
17659 H 134.88675757415285 60.70341903329805 120.03163372582773 H 0.0 **** 0.06
17660 H 135.97363353062684 59.347943032227974 120.41907961685786 H 0.0 **** 0.06
17661 C 19.827926694805285 51.114813953648365 14.016988905753692 C 0.0 **** -0.24
17662 H 20.882654170203836 50.98898694505323 13.76903395942918 H 0.0 **** 0.06
17663 H 19.672222770599035 50.878416994735346 15.070399037815832 H 0.0 **** 0.06
17664 H 19.22788606156641 50.44516407163093 13.401332907274593 H 0.0 **** 0.06
17665 H 19.532517438911867 52.14667311895312 13.828298489304245 H 0.0 **** 0.06
17666 C 18.76359534105427 119.85153250074343 128.6356021184743 C 0.0 **** -0.24
17667 H 19.17484407433409 120.47150193708251 127.83904801871968 H 0.0 **** 0.06
17668 H 17.75740798496861 120.19364776969513 128.87978904380077 H 0.0 **** 0.06
17669 H 19.397903397072014 119.92877964661821 129.51914230996678 H 0.0 **** 0.06
17670 H 18.725158812259394 118.81381985769943 128.30601280987008 H 0.0 **** 0.06
17671 C 61.11102927944249 31.600178936887936 100.23590544663122 C 0.0 **** -0.24
17672 H 61.44255895105779 31.352164215814376 101.24382101870003 H 0.0 **** 0.06
17673 H 61.96664625165718 31.921504051782563 99.64087108695088 H 0.0 **** 0.06
17674 H 60.3782350908282 32.40663159060126 100.28261650204439 H 0.0 **** 0.06
17675 H 60.656371875992406 30.72332868845595 99.77566277504576 H 0.0 **** 0.06
17676 C 66.66286150772709 95.9124624129505 118.56737802377415 C 0.0 **** -0.24
17677 H 66.21417495655544 95.36984173145066 119.4003577994115 H 0.0 **** 0.06
17678 H 66.32457661217836 96.94910152216914 118.58610792077715 H 0.0 **** 0.06
17679 H 66.36180912659182 95.44955295325133 117.62862445200906 H 0.0 **** 0.06
17680 H 67.74816786063934 95.88267012529622 118.6563922744545 H 0.0 **** 0.06
17681 C 70.81746286239638 16.541076679943146 70.44054321981223 C 0.0 **** -0.24
17682 H 71.17137258076286 15.516437836183485 70.32198410586713 H 0.0 **** 0.06
17683 H 71.65153568525956 17.230541939327964 70.31074247183706 H 0.0 **** 0.06
17684 H 70.39341116089862 16.665244639917788 71.436476695772 H 0.0 **** 0.06
17685 H 70.05332780225821 16.74850483246007 69.69092980753723 H 0.0 **** 0.06
17686 C 67.01365439185975 122.70055416944871 43.3041558372216 C 0.0 **** -0.24
17687 H 67.91500064024814 123.2470245196958 43.58134376756911 H 0.0 **** 0.06
17688 H 66.13607838964043 123.30092806014835 43.547023458987326 H 0.0 **** 0.06
17689 H 66.97458398128526 121.7600477550109 43.85440149497015 H 0.0 **** 0.06
17690 H 67.02789631982569 122.49505959495083 42.23344334354442 H 0.0 **** 0.06
17691 C 109.40471463878993 11.353866346472756 86.59713310759646 C 0.0 **** -0.24
17692 H 109.38426235632897 10.2638797087601 86.62588987803449 H 0.0 **** 0.06
17693 H 108.66999152817414 11.747849752011902 87.29970204644735 H 0.0 **** 0.06
17694 H 109.16516305375387 11.695177498541113 85.59103484938191 H 0.0 **** 0.06
17695 H 110.39796145043692 11.705185587830002 86.8740113393688 H 0.0 **** 0.06
17696 C 136.10748082234852 36.546067604935985 79.62231996208084 C 0.0 **** -0.24
17697 H 135.96018522886848 35.75180955259805 78.89035942638498 H 0.0 **** 0.06
17698 H 135.4716033627556 37.39429779120826 79.37036871126384 H 0.0 **** 0.06
17699 H 137.15210861353063 36.857962420402515 79.6138649784778 H 0.0 **** 0.06
17700 H 135.84711208157873 36.17740669446124 80.61480842203036 H 0.0 **** 0.06
17701 C 76.24884279118355 124.22609994588466 74.36065550515072 C 0.0 **** -0.24
17702 H 75.48069425568593 124.57574822743751 75.0508982146864 H 0.0 **** 0.06
17703 H 76.70531497275618 125.08127559748625 73.86230240574538 H 0.0 **** 0.06
17704 H 75.79711385058104 123.5699052154206 73.61671296589213 H 0.0 **** 0.06
17705 H 77.01146770189466 123.67767701486783 74.91329877269264 H 0.0 **** 0.06
17706 C 1.4540475426576336 11.716811706793237 113.3977876321643 C 0.0 **** -0.24
17707 H 0.5658394353765743 12.342213287761524 113.30540092055156 H 0.0 **** 0.06
17708 H 1.2438259097035598 10.72582195972933 112.99591547338525 H 0.0 **** 0.06
17709 H 1.7304261035775994 11.631837653369075 114.44900758508507 H 0.0 **** 0.06
17710 H 2.275676820717365 12.168769394502817 112.84176186076095 H 0.0 **** 0.06
17711 C 121.37926392213211 13.464029087885649 90.38929089029301 C 0.0 **** -0.24
17712 H 121.57611799027234 12.39334958907051 90.34745919468514 H 0.0 **** 0.06
17713 H 121.51297942067043 13.81742158208084 91.41202350552959 H 0.0 **** 0.06
17714 H 120.3563995853226 13.65902718866272 90.06778610083768 H 0.0 **** 0.06
17715 H 122.07385099394224 13.986650405103433 89.73069171208726 H 0.0 **** 0.06
17716 C 62.26287395583695 105.75968005970351 84.68891208517488 C 0.0 **** -0.24
17717 H 61.81329749870714 105.0930692689571 85.4248802409769 H 0.0 **** 0.06
17718 H 62.2753722187161 105.26954902930842 83.71472448021228 H 0.0 **** 0.06
17719 H 63.28351182295464 105.99689689913423 84.98920457476675 H 0.0 **** 0.06
17720 H 61.67942511527447 106.67848014616634 84.62615912605287 H 0.0 **** 0.06
17721 C 36.88379824327947 46.49063030688552 4.320369838091828 C 0.0 **** -0.24
17722 H 35.80650084814522 46.630399830106086 4.2291235784701975 H 0.0 **** 0.06
17723 H 37.085236244201525 45.59336219213171 4.904667430144592 H 0.0 **** 0.06
17724 H 37.32095853494312 47.35594133852504 4.81863458850874 H 0.0 **** 0.06
17725 H 37.320190988941306 46.3842067571037 3.327394790191967 H 0.0 **** 0.06
17726 C 78.52527411216323 62.7893872981399 76.27345946886037 C 0.0 **** -0.24
17727 H 79.29513040143786 63.55824043585221 76.34356822283434 H 0.0 **** 0.06
17728 H 78.90205722025635 61.85928904645152 76.69795417286332 H 0.0 **** 0.06
17729 H 78.2642511374699 62.633326022919334 75.22657315056469 H 0.0 **** 0.06
17730 H 77.64172487530539 63.10974226440692 76.82508386923418 H 0.0 **** 0.06
17731 C 57.38121410243468 111.7778082295799 48.63139707866637 C 0.0 **** -0.24
17732 H 58.078210727094245 112.39613920372722 49.196933609131804 H 0.0 **** 0.06
17733 H 56.38626195057154 111.85927426918218 49.06886656845515 H 0.0 **** 0.06
17734 H 57.70868000139427 110.73818414635494 48.664381325457924 H 0.0 **** 0.06
17735 H 57.35240023931607 112.1169235508736 47.59549811655006 H 0.0 **** 0.06
17736 C 63.603492720780764 51.68113126174461 29.325765405940956 C 0.0 **** -0.24
17737 H 63.508021492023204 52.73747210073043 29.077930261146577 H 0.0 **** 0.06
17738 H 64.50102065186792 51.27700366143961 28.856032904057315 H 0.0 **** 0.06
17739 H 62.728784824445825 51.14166246004294 28.960889229306417 H 0.0 **** 0.06
17740 H 63.67557791735999 51.56714601463477 30.407141438931205 H 0.0 **** 0.06
17741 C 127.262476576035 126.04744503596434 97.96392641019074 C 0.0 **** -0.24
17742 H 128.18180687178608 125.49410606333564 98.15606921736395 H 0.0 **** 0.06
17743 H 126.73537864781366 126.21441776863317 98.90328626816103 H 0.0 **** 0.06
17744 H 126.62788819551938 125.4736645534502 97.28697611385361 H 0.0 **** 0.06
17745 H 127.5050410360088 127.00726864755005 97.5065718065655 H 0.0 **** 0.06
17746 C 7.5201580601546425 31.936976240425608 113.82775499859693 C 0.0 **** -0.24
17747 H 8.303180635939697 32.48092610715565 114.3555619957196 H 0.0 **** 0.06
17748 H 7.169467575125168 31.11214136188768 114.44738684944969 H 0.0 **** 0.06
17749 H 7.91781455364378 31.5448126688284 112.89132927211321 H 0.0 **** 0.06
17750 H 6.6904525745474075 32.61096028902858 113.61473066061814 H 0.0 **** 0.06
17751 C 136.68377597250375 94.17491166442494 62.18528985574571 C 0.0 **** -0.24
17752 H 137.43125100198827 94.07345375391856 62.97173273787696 H 0.0 **** 0.06
17753 H 135.68746954245222 94.16185162425819 62.62813297912989 H 0.0 **** 0.06
17754 H 136.78143101855238 93.3455338029188 61.48396755452757 H 0.0 **** 0.06
17755 H 136.83560598656635 95.11670074468725 61.65839136875442 H 0.0 **** 0.06
17756 C 53.99911800798672 124.1879016787654 88.00299911526344 C 0.0 **** -0.24
17757 H 53.155324928096846 124.71980173550782 87.56170476756441 H 0.0 **** 0.06
17758 H 54.41064125702212 123.49001018633913 87.27368632135659 H 0.0 **** 0.06
17759 H 53.66136372139405 123.63832066359481 88.88210141319541 H 0.0 **** 0.06
17760 H 54.7670537751175 124.9047029015639 88.29486338980004 H 0.0 **** 0.06
17761 C 90.8995613889903 43.79537518393346 76.918845319578 C 0.0 **** -0.24
17762 H 90.11397174750567 44.37031594972629 76.42797658079553 H 0.0 **** 0.06
17763 H 90.70501955183722 42.731244075811304 76.78851313352624 H 0.0 **** 0.06
17764 H 90.91459459631602 44.03562739654092 77.98150655292363 H 0.0 **** 0.06
17765 H 91.86364976668956 44.04689412006637 76.4762361114721 H 0.0 **** 0.06
17766 C 57.142219329268926 101.75235434491015 121.65354049961698 C 0.0 **** -0.24
17767 H 57.55018805799057 101.13127066427079 120.85608978623254 H 0.0 **** 0.06
17768 H 57.96047682818383 102.22364198965403 122.19966664535032 H 0.0 **** 0.06
17769 H 56.559697348507825 101.1324641958256 122.33419852734019 H 0.0 **** 0.06
17770 H 56.50132163202068 102.52156915778554 121.22250363197774 H 0.0 **** 0.06
17771 C 72.84444692647138 89.89255612334583 49.02650312544148 C 0.0 **** -0.24
17772 H 73.50975536752621 90.7555921605735 48.98455565076421 H 0.0 **** 0.06
17773 H 71.81192306312718 90.22408137449709 48.91149619481013 H 0.0 **** 0.06
17774 H 72.96088164007197 89.39089631342875 49.98581815922938 H 0.0 **** 0.06
17775 H 73.09630621386034 89.201645949732 48.22152106049555 H 0.0 **** 0.06
17776 C 130.49569394719228 29.883816338416636 39.686935788848444 C 0.0 **** -0.24
17777 H 130.99765939888255 28.975514667772927 39.35467717173634 H 0.0 **** 0.06
17778 H 130.5351069942339 29.942709690617903 40.775543770957384 H 0.0 **** 0.06
17779 H 129.4563065618869 29.8652354173895 39.36117419848023 H 0.0 **** 0.06
17780 H 130.99553423306764 30.75240678484431 39.25785957132089 H 0.0 **** 0.06
17781 C 4.085499823793953 102.2321933487826 125.98618616038016 C 0.0 **** -0.24
17782 H 4.983654246641095 102.7773682050587 125.69737647592177 H 0.0 **** 0.06
17783 H 4.36705886986681 101.28654984664682 126.44903701742575 H 0.0 **** 0.06
17784 H 3.4786584394479405 102.03827313397753 125.10171312586937 H 0.0 **** 0.06
17785 H 3.5115803898676745 102.82828390749685 126.69653160200372 H 0.0 **** 0.06
17786 C 15.350503655980901 6.84524621943395 62.709090664757014 C 0.0 **** -0.24
17787 H 16.12151896587511 7.470753387776469 63.15958068927068 H 0.0 **** 0.06
17788 H 15.686545109159738 5.807997007261367 62.69573714506748 H 0.0 **** 0.06
17789 H 15.161550886546934 7.179824465690714 61.6896897374196 H 0.0 **** 0.06
17790 H 14.433008903682605 6.923213603494688 63.2923466347674 H 0.0 **** 0.06
17791 C 66.36135863593161 76.13439674045945 47.07111644843563 C 0.0 **** -0.24
17792 H 65.93691971419418 75.33514094845361 47.67850333672193 H 0.0 **** 0.06
17793 H 66.27866836270009 77.08017291458387 47.60687182278561 H 0.0 **** 0.06
17794 H 65.81821323997751 76.20168723149638 46.12821976635898 H 0.0 **** 0.06
17795 H 67.41130157327984 75.92009593155574 46.871677103087194 H 0.0 **** 0.06
17796 C 28.620622381007166 46.884600040003306 109.30453946709976 C 0.0 **** -0.24
17797 H 28.587293425097513 46.05840916271967 108.59457689029638 H 0.0 **** 0.06
17798 H 29.005304888633546 47.77613447624623 108.80712829124215 H 0.0 **** 0.06
17799 H 29.273947173424602 46.622321046378374 110.13696395490314 H 0.0 **** 0.06
17800 H 27.61648817737992 47.08282490530041 109.67928532977137 H 0.0 **** 0.06
17801 C 114.86735506424102 96.74850711562932 45.85192710309872 C 0.0 **** -0.24
17802 H 114.08274213634698 97.50486336349151 45.880349980839696 H 0.0 **** 0.06
17803 H 115.37492483737691 96.78998018885966 44.88777825058577 H 0.0 **** 0.06
17804 H 114.42613039718009 95.76220719870187 45.989146799847674 H 0.0 **** 0.06
17805 H 115.58530955082907 96.94050946743313 46.64923790228056 H 0.0 **** 0.06
17806 C 44.02972731444419 136.74638679897015 110.80424212831849 C 0.0 **** -0.24
17807 H 44.99965426802174 136.24941057970682 110.7962177644464 H 0.0 **** 0.06
17808 H 43.447924983266944 136.41986786288885 109.94245359329659 H 0.0 **** 0.06
17809 H 44.173224869843125 137.82584055230882 110.75821930944608 H 0.0 **** 0.06
17810 H 43.497445623764406 136.489709008646 111.72029659593966 H 0.0 **** 0.06
17811 C 91.99898781690547 18.895465249463633 126.01027581701699 C 0.0 **** -0.24
17812 H 91.85244336696606 19.972631085026585 126.09294728497579 H 0.0 **** 0.06
17813 H 92.98793816945151 18.69435652306764 125.59827515282372 H 0.0 **** 0.06
17814 H 91.2373606807734 18.475289131554206 125.3527431276052 H 0.0 **** 0.06
17815 H 91.91660529288554 18.441912512986413 126.99722466349628 H 0.0 **** 0.06
17816 C 132.5902861656794 15.846417370131043 26.415427690335775 C 0.0 **** -0.24
17817 H 133.4923399222772 15.25517983931671 26.57375101368683 H 0.0 **** 0.06
17818 H 131.83091412469318 15.552336036893216 27.141013249903892 H 0.0 **** 0.06
17819 H 132.21576652260114 15.674614247808798 25.406757900984132 H 0.0 **** 0.06
17820 H 132.82363172706584 16.90448691574568 26.54187069353401 H 0.0 **** 0.06
17821 C 65.79021368974833 55.533855793485316 37.37129980454242 C 0.0 **** -0.24
17822 H 66.62141609466964 54.82909158342126 37.37330194167504 H 0.0 **** 0.06
17823 H 65.0105830325211 55.17702157574318 38.04486826862899 H 0.0 **** 0.06
17824 H 65.38783508952008 55.618183373104486 36.36176457143432 H 0.0 **** 0.06
17825 H 66.14111968789375 56.51007416581906 37.70620388170323 H 0.0 **** 0.06
17826 C 63.921945971577884 24.268097129749435 79.55499328046926 C 0.0 **** -0.24
17827 H 64.15243051286109 23.424047490530256 80.2062422475878 H 0.0 **** 0.06
17828 H 64.45614630443845 25.152222223352794 79.90436690817252 H 0.0 **** 0.06
17829 H 62.84929201559078 24.459820605848506 79.57424537938611 H 0.0 **** 0.06
17830 H 64.23225766505672 24.03504559120529 78.53651270325692 H 0.0 **** 0.06
17831 C 12.899054012005536 45.46661810475797 64.94758924465279 C 0.0 **** -0.24
17832 H 12.006609236815507 45.273985031041406 65.5428529465549 H 0.0 **** 0.06
17833 H 12.824862623877152 44.93221645881586 64.00001517285452 H 0.0 **** 0.06
17834 H 13.778993254647219 45.12338277136101 65.49100111833967 H 0.0 **** 0.06
17835 H 12.984497105248295 46.53623975146594 64.75640068531884 H 0.0 **** 0.06
17836 C 120.52732927913411 48.05677749313503 31.846353943486235 C 0.0 **** -0.24
17837 H 121.37080117721169 47.79820101995767 32.48617376715555 H 0.0 **** 0.06
17838 H 119.87606784434999 48.757842455394666 32.369565739513945 H 0.0 **** 0.06
17839 H 119.96783471492316 47.1552044999338 31.599418781707953 H 0.0 **** 0.06
17840 H 120.89556700653532 48.51886709381279 30.930011610260152 H 0.0 **** 0.06
17841 C 99.30760999675012 54.09388484425267 120.89749567923161 C 0.0 **** -0.24
17842 H 98.62074396069558 54.101203756489724 121.74416301109426 H 0.0 **** 0.06
17843 H 100.27902511054747 54.47468277461277 121.21561319824514 H 0.0 **** 0.06
17844 H 98.91098091026161 54.72720009994919 120.1033425064092 H 0.0 **** 0.06
17845 H 99.41942762466715 53.07486285530757 120.52863118717482 H 0.0 **** 0.06
17846 C 129.04939493548412 15.921740850266104 124.69224001825472 C 0.0 **** -0.24
17847 H 128.60062589627586 16.913751726576578 124.74262680886577 H 0.0 **** 0.06
17848 H 130.13074564421922 16.005428356343756 124.80295194186562 H 0.0 **** 0.06
17849 H 128.816370924558 15.466288498297004 123.73032891184249 H 0.0 **** 0.06
17850 H 128.64883148283496 15.301112162570632 125.49397004023623 H 0.0 **** 0.06
17851 C 113.69826779417681 60.00246934095321 108.5638239714438 C 0.0 **** -0.24
17852 H 113.26445304387738 59.01156706502144 108.42418668289443 H 0.0 **** 0.06
17853 H 114.78353387603931 59.93900068851258 108.47150697477753 H 0.0 **** 0.06
17854 H 113.43879734580943 60.37560898608098 109.55380674149026 H 0.0 **** 0.06
17855 H 113.3072903484873 60.6792233854577 107.8048215943916 H 0.0 **** 0.06
17856 C 5.745400469649724 47.644512057213575 67.71902007840038 C 0.0 **** -0.24
17857 H 5.9757254437710685 48.574896786407265 67.20003383615564 H 0.0 **** 0.06
17858 H 4.6695878307991165 47.46936343056119 67.68930097652685 H 0.0 **** 0.06
17859 H 6.073731300127292 47.715892627587266 68.7557846257783 H 0.0 **** 0.06
17860 H 6.262557303901417 46.81789538429881 67.23096087514095 H 0.0 **** 0.06
17861 C 104.56548888128198 41.845745211847714 134.07859094177746 C 0.0 **** -0.24
17862 H 105.57926809012395 42.177235246775155 134.30704490683166 H 0.0 **** 0.06
17863 H 103.86661088313 42.3095647800161 134.77492852485778 H 0.0 **** 0.06
17864 H 104.50856233457007 40.760889218335336 134.17413128976108 H 0.0 **** 0.06
17865 H 104.31052432828709 42.13518159636419 133.05922216249388 H 0.0 **** 0.06
17866 C 78.62933026988227 133.3943888970083 5.835231658686382 C 0.0 **** -0.24
17867 H 78.49224896821153 133.00157595917528 4.827533888963529 H 0.0 **** 0.06
17868 H 78.4487879937787 132.6015612189682 6.561276995481933 H 0.0 **** 0.06
17869 H 77.927063943917 134.21007221894547 6.005383820653236 H 0.0 **** 0.06
17870 H 79.64848968865539 133.76307093389977 5.9453753543373296 H 0.0 **** 0.06
17871 C 35.6465811307979 105.60082823796736 80.98261689015361 C 0.0 **** -0.24
17872 H 35.30292047316067 106.19624340488622 80.13700340051798 H 0.0 **** 0.06
17873 H 36.612721532027535 105.1552158813634 80.74287436540584 H 0.0 **** 0.06
17874 H 34.92336478791033 104.81211403325807 81.18863645523511 H 0.0 **** 0.06
17875 H 35.74813730287093 106.23920223012254 81.8591178648191 H 0.0 **** 0.06
17876 C 123.35881291169376 39.22712573861452 94.72259850618799 C 0.0 **** -0.24
17877 H 123.4053182515312 40.17799248264885 94.19222059607954 H 0.0 **** 0.06
17878 H 123.69286611938799 38.42661916017124 94.06328470567192 H 0.0 **** 0.06
17879 H 122.33168366247118 39.03573974046367 95.03533166440876 H 0.0 **** 0.06
17880 H 124.0033991051499 39.26937816294236 95.60030370293804 H 0.0 **** 0.06
17881 C 113.4745247902456 19.792106057938973 102.49748276577282 C 0.0 **** -0.24
17882 H 113.10665219159125 20.72939188862089 102.91514422276634 H 0.0 **** 0.06
17883 H 112.65911319583893 19.279979327607926 101.98419208486416 H 0.0 **** 0.06
17884 H 113.85202642980994 19.160016970895477 103.30033947244698 H 0.0 **** 0.06
17885 H 114.27625907580295 20.000557346552107 101.78970934552262 H 0.0 **** 0.06
17886 C 114.5517486237172 75.00159864958692 49.4637183028602 C 0.0 **** -0.24
17887 H 115.1359012942834 75.88763306678926 49.21466461207814 H 0.0 **** 0.06
17888 H 113.86605849652892 74.77675940501287 48.646935948709 H 0.0 **** 0.06
17889 H 113.98332513603128 75.18718048478732 50.37558629046168 H 0.0 **** 0.06
17890 H 115.22233005416308 74.15641734062679 49.619124752977626 H 0.0 **** 0.06
17891 C 48.657153099839135 54.416751054266825 82.76467038879697 C 0.0 **** -0.24
17892 H 49.7073550271047 54.1879017395122 82.58748150769306 H 0.0 **** 0.06
17893 H 48.0362998847458 53.630419186528115 82.33398652002644 H 0.0 **** 0.06
17894 H 48.410155900829736 55.37132987147845 82.30000628532939 H 0.0 **** 0.06
17895 H 48.47377591536217 54.47676799354031 83.83798529576012 H 0.0 **** 0.06
17896 C 46.94440162450054 7.159964154008065 91.5759774517227 C 0.0 **** -0.24
17897 H 47.03346359961421 6.38744011799804 90.81228796441565 H 0.0 **** 0.06
17898 H 46.49539000028496 6.733665701434404 92.47355992365354 H 0.0 **** 0.06
17899 H 46.31427890346043 7.967774166645029 91.20370012716717 H 0.0 **** 0.06
17900 H 47.933151374587 7.550743376466102 91.81480491882732 H 0.0 **** 0.06
17901 C 28.320769994540115 134.06638609805356 60.26940761526919 C 0.0 **** -0.24
17902 H 29.295373472280374 134.5230934784468 60.094163385705684 H 0.0 **** 0.06
17903 H 27.620970212420417 134.82830750028677 60.616038845773176 H 0.0 **** 0.06
17904 H 28.415311880012894 133.28753460872105 61.02678486650697 H 0.0 **** 0.06
17905 H 27.95178069077906 133.62952466796418 59.34218327154446 H 0.0 **** 0.06
17906 C 79.88300914886611 40.35616114862563 96.95847549218081 C 0.0 **** -0.24
17907 H 80.02066567657425 39.630426697889845 96.15507435461075 H 0.0 **** 0.06
17908 H 78.90760587088891 40.83053606224274 96.8544470841274 H 0.0 **** 0.06
17909 H 80.66402109775413 41.113780164453544 96.90033953649072 H 0.0 **** 0.06
17910 H 79.94093179538129 39.847288955938154 97.92033103807296 H 0.0 **** 0.06
17911 C 134.79097957961955 132.99557870302377 105.23942606634107 C 0.0 **** -0.24
17912 H 135.365787242058 132.57270851485006 106.06285364529259 H 0.0 **** 0.06
17913 H 135.44402736753847 133.14491760169122 104.37907928620001 H 0.0 **** 0.06
17914 H 134.36818088121422 133.95253672686724 105.54439104235595 H 0.0 **** 0.06
17915 H 133.98568021803715 132.3120806509633 104.96998883650632 H 0.0 **** 0.06
17916 C 95.57452923836826 22.117197776629666 93.17687751348139 C 0.0 **** -0.24
17917 H 96.54837713661283 22.574202172142293 93.00482154373992 H 0.0 **** 0.06
17918 H 94.80116950489989 22.885344572298422 93.13948298036685 H 0.0 **** 0.06
17919 H 95.56526952327556 21.639957767646806 94.15734339367779 H 0.0 **** 0.06
17920 H 95.38218948973321 21.3701239429885 92.40689364041785 H 0.0 **** 0.06
17921 C 78.22681712267278 61.536204074712145 6.389083010945285 C 0.0 **** -0.24
17922 H 77.16815342131336 61.53322768966592 6.131138571540845 H 0.0 **** 0.06
17923 H 78.68956443116424 62.45061977369329 6.017828488208721 H 0.0 **** 0.06
17924 H 78.71384109943912 60.672615153991785 5.937137390743516 H 0.0 **** 0.06
17925 H 78.3361389650744 61.487813395514166 7.473313715057202 H 0.0 **** 0.06
17926 C 37.62525937838876 93.0399159805609 21.469150854245584 C 0.0 **** -0.24
17927 H 37.91939644819206 93.85024955139754 22.135107221367974 H 0.0 **** 0.06
17928 H 38.4877465809281 92.40400239642969 21.268874011511343 H 0.0 **** 0.06
17929 H 37.25503651558404 93.45585242681966 20.53237876693754 H 0.0 **** 0.06
17930 H 36.84018874171596 92.44908132154548 21.940222533709004 H 0.0 **** 0.06
17931 C 9.961774101404416 120.55957149337632 28.826236601170343 C 0.0 **** -0.24
17932 H 9.491200662177079 120.79875325075699 27.872383989561364 H 0.0 **** 0.06
17933 H 9.892297718953088 119.48673342116541 29.00548100772341 H 0.0 **** 0.06
17934 H 9.452868560232773 121.09561665714773 29.626542626969837 H 0.0 **** 0.06
17935 H 11.010212054508983 120.85711912415843 28.798607864137594 H 0.0 **** 0.06
17936 C 105.80214301507242 12.03021108319274 89.17038104412573 C 0.0 **** -0.24
17937 H 106.80465265690131 12.065734517424403 89.59492961918984 H 0.0 **** 0.06
17938 H 105.61757286060379 11.038839229462951 88.75548369504408 H 0.0 **** 0.06
17939 H 105.71526807148521 12.777272363620568 88.38084935300495 H 0.0 **** 0.06
17940 H 105.06944829734624 12.239576589951525 89.95017116138004 H 0.0 **** 0.06
17941 C 68.03271424366596 9.457349430802367 102.08463626698881 C 0.0 **** -0.24
17942 H 67.5052526951198 10.053216879362196 102.82989822602639 H 0.0 **** 0.06
17943 H 67.74833501694388 9.790228874338709 101.08622562404562 H 0.0 **** 0.06
17944 H 67.76961798426737 8.406863166348046 102.20748176263601 H 0.0 **** 0.06
17945 H 69.10842598243005 9.58071062849399 102.21660372512594 H 0.0 **** 0.06
17946 C 81.09166404501536 98.00098405165015 28.568352381276014 C 0.0 **** -0.24
17947 H 80.85364465973907 98.71459866691879 29.356413267907136 H 0.0 **** 0.06
17948 H 81.9335525860028 97.38241054727212 28.880755338876455 H 0.0 **** 0.06
17949 H 81.35366646271012 98.54025944465471 27.657385366456936 H 0.0 **** 0.06
17950 H 80.2254072378895 97.36738124372566 28.379440598347962 H 0.0 **** 0.06
17951 C 64.65358369510585 131.4789606836526 29.569033023776505 C 0.0 **** -0.24
17952 H 65.5083912247141 131.96640653230418 29.099929937443655 H 0.0 **** 0.06
17953 H 64.04602829683307 132.22576092142265 30.080779966437873 H 0.0 **** 0.06
17954 H 65.00790112537663 130.74192168199727 30.290405173790603 H 0.0 **** 0.06
17955 H 64.05496147866916 130.98183842667797 28.80557053149576 H 0.0 **** 0.06
17956 C 49.48951766335769 23.10407081211605 74.76092773785531 C 0.0 **** -0.24
17957 H 49.86727774212004 23.519442257707965 73.82680090799818 H 0.0 **** 0.06
17958 H 50.063871969694986 22.2141836111021 75.02086430682714 H 0.0 **** 0.06
17959 H 48.439465403698506 22.837549328901275 74.64139696827691 H 0.0 **** 0.06
17960 H 49.588793194828995 23.845553523529077 75.55453776974359 H 0.0 **** 0.06
17961 C 9.475399546166727 67.50068733623064 71.37705497417723 C 0.0 **** -0.24
17962 H 9.844456839081374 67.93154710625322 70.44597835818502 H 0.0 **** 0.06
17963 H 9.824872603049954 68.09925358202071 72.21845090101678 H 0.0 **** 0.06
17964 H 9.846235765612164 66.48059618916474 71.47660198731431 H 0.0 **** 0.06
17965 H 8.385328671200426 67.49101933413411 71.3650926522557 H 0.0 **** 0.06
17966 C 13.0151876130613 18.239809769580802 53.576721279595574 C 0.0 **** -0.24
17967 H 13.866085971517009 17.91061953452862 54.17412808368107 H 0.0 **** 0.06
17968 H 12.090906623107912 18.018842587821382 54.110576333894244 H 0.0 **** 0.06
17969 H 13.018499992032446 17.71386436849548 52.62155659995335 H 0.0 **** 0.06
17970 H 13.088311005272828 19.312504540631636 53.4016558829922 H 0.0 **** 0.06
17971 C 80.2080229168602 83.43819214279256 91.34481733175015 C 0.0 **** -0.24
17972 H 79.88842048832949 84.34524929848783 91.85858936382402 H 0.0 **** 0.06
17973 H 81.0136454764185 83.67801214623887 90.65068281204125 H 0.0 **** 0.06
17974 H 79.36636210529986 83.0172265633754 90.79508457160784 H 0.0 **** 0.06
17975 H 80.56304840381496 82.71291321822315 92.0769672123536 H 0.0 **** 0.06
17976 C 84.04062992580113 136.16242463842167 120.54592352636001 C 0.0 **** -0.24
17977 H 83.75444172281858 136.08226530764279 121.59519370671296 H 0.0 **** 0.06
17978 H 84.9007937184066 135.520636669061 120.35501381059316 H 0.0 **** 0.06
17979 H 84.30064086285894 137.19660585553368 120.31849305392768 H 0.0 **** 0.06
17980 H 83.20638579925613 135.85022164859163 119.91697668100073 H 0.0 **** 0.06
17981 C 123.63143205508034 136.23848562543125 16.237116180176912 C 0.0 **** -0.24
17982 H 124.58251487023199 136.26531491295344 16.768814143571745 H 0.0 **** 0.06
17983 H 122.82354301502112 136.4822646177352 16.926213496336317 H 0.0 **** 0.06
17984 H 123.47193796611526 135.24098638951304 15.827473679185402 H 0.0 **** 0.06
17985 H 123.64900880486715 136.96598411081413 15.424548550065708 H 0.0 **** 0.06
17986 C 116.07034474992815 100.75893632048393 28.63388892537688 C 0.0 **** -0.24
17987 H 115.62647326497012 99.90006323174985 29.137324309027605 H 0.0 **** 0.06
17988 H 116.0458181121372 100.60096172092913 27.55578200994313 H 0.0 **** 0.06
17989 H 117.10341970675907 100.8788777500433 28.960909216274302 H 0.0 **** 0.06
17990 H 115.50380732208302 101.65728014813625 28.8822270902173 H 0.0 **** 0.06
17991 C 27.210945917725226 67.11391193014788 85.45421530025625 C 0.0 **** -0.24
17992 H 26.135177641005413 67.05019449709789 85.6165444294125 H 0.0 **** 0.06
17993 H 27.730797591431184 66.96688501335609 86.40090552632148 H 0.0 **** 0.06
17994 H 27.459868937910443 68.09557317214632 85.05125054599522 H 0.0 **** 0.06
17995 H 27.518275419400823 66.34302437740274 84.74646174762877 H 0.0 **** 0.06
17996 C 6.332330699762764 7.014833581043149 111.87404023796537 C 0.0 **** -0.24
17997 H 5.625138963208542 7.047687793576273 111.04543629423745 H 0.0 **** 0.06
17998 H 6.9259134475331905 6.1023703943953365 111.81001243653338 H 0.0 **** 0.06
17999 H 5.786217383314181 7.027225943019573 112.81749492963826 H 0.0 **** 0.06
18000 H 6.991107037800674 7.881357408186602 111.82400804281122 H 0.0 **** 0.06
18001 C 21.01908703660979 73.87351294729662 86.02358226770707 C 0.0 **** -0.24
18002 H 21.873786696894513 74.53007797432126 86.18528848576517 H 0.0 **** 0.06
18003 H 20.816829535591523 73.79639043248285 84.95513849383258 H 0.0 **** 0.06
18004 H 20.144832483481792 74.28408276691323 86.52977146986547 H 0.0 **** 0.06
18005 H 21.23991601074607 72.88474487017946 86.42482693659485 H 0.0 **** 0.06
18006 C 83.30683091819199 129.52845513087323 88.44798421468764 C 0.0 **** -0.24
18007 H 83.98144759203267 128.76186031568346 88.06825043661767 H 0.0 **** 0.06
18008 H 83.883018901707 130.4058107043989 88.74187988992425 H 0.0 **** 0.06
18009 H 82.76767414807587 129.14120218328193 89.3127802677251 H 0.0 **** 0.06
18010 H 82.59534566024945 129.80438249778717 87.67065557920866 H 0.0 **** 0.06
18011 C 114.98489072448521 11.185652292025107 103.61598594398728 C 0.0 **** -0.24
18012 H 115.30559940794166 11.346393194562523 104.6458269114639 H 0.0 **** 0.06
18013 H 115.08685971890992 10.12912809413594 103.36467720191997 H 0.0 **** 0.06
18014 H 115.6067210836647 11.780173996282993 102.94620908673849 H 0.0 **** 0.06
18015 H 113.94328118662591 11.486208507229005 103.50828015226418 H 0.0 **** 0.06
18016 C 76.7887592815917 58.6412265283473 104.64121166994062 C 0.0 **** -0.24
18017 H 75.9169201724868 59.25813539705686 104.85695233991626 H 0.0 **** 0.06
18018 H 77.5639014344807 59.255885552414114 104.1826672049076 H 0.0 **** 0.06
18019 H 76.50749682154537 57.84026806771378 103.95636343350617 H 0.0 **** 0.06
18020 H 77.1665666895383 58.20985042909085 105.56823987344688 H 0.0 **** 0.06
18021 C 87.65578611815721 9.060907593706094 60.491123956076606 C 0.0 **** -0.24
18022 H 87.27968535758163 8.05679451788951 60.68834777159894 H 0.0 **** 0.06
18023 H 88.17203389399265 9.072645096379194 59.53102003311368 H 0.0 **** 0.06
18024 H 88.34861902633577 9.351172660513313 61.27997168683946 H 0.0 **** 0.06
18025 H 86.82131008477188 9.761414972403404 60.464064584212 H 0.0 **** 0.06
18026 C 89.35926670273304 110.99761690354771 86.04225615080765 C 0.0 **** -0.24
18027 H 89.68053414638922 110.68412897725571 85.04809283803256 H 0.0 **** 0.06
18028 H 88.27309228489037 110.93127714361225 86.10964502682238 H 0.0 **** 0.06
18029 H 89.67292160241931 112.0261401878187 86.21711455008655 H 0.0 **** 0.06
18030 H 89.81098983852425 110.34741993463601 86.79108600246627 H 0.0 **** 0.06
18031 C 74.21344811780362 44.01423491876929 26.72041983154132 C 0.0 **** -0.24
18032 H 73.36012758725704 44.682988092553245 26.83443886390664 H 0.0 **** 0.06
18033 H 74.10418124260207 43.167053539179676 27.399036526011805 H 0.0 **** 0.06
18034 H 75.13119086398396 44.552164350537744 26.95647110729641 H 0.0 **** 0.06
18035 H 74.25726976449988 43.65318320200774 25.69297768021839 H 0.0 **** 0.06
18036 C 105.86896346789786 117.37452642053259 99.80794669895783 C 0.0 **** -0.24
18037 H 106.72540797788383 117.33505253959777 99.1341264546694 H 0.0 **** 0.06
18038 H 105.58196068311986 118.41321023743964 99.97042552885654 H 0.0 **** 0.06
18039 H 106.1366861763081 116.91819963896967 100.76146205172364 H 0.0 **** 0.06
18040 H 105.03411788878185 116.82954671825112 99.36688087186991 H 0.0 **** 0.06
18041 C 104.08942209292667 109.24500343932249 13.953521744089898 C 0.0 **** -0.24
18042 H 104.10007025316622 108.64115789586002 13.046201386015134 H 0.0 **** 0.06
18043 H 104.8100722380363 108.84216433358858 14.665782316842524 H 0.0 **** 0.06
18044 H 103.09275527155899 109.22278928754771 14.393887302038195 H 0.0 **** 0.06
18045 H 104.35533529773136 110.27300133748659 13.709160313007217 H 0.0 **** 0.06
18046 C 116.8702580129418 35.53785833971335 109.68313861469034 C 0.0 **** -0.24
18047 H 117.78903281411021 35.244405579640926 109.17472988759147 H 0.0 **** 0.06
18048 H 116.68618804163248 34.86051840634212 110.51767918875021 H 0.0 **** 0.06
18049 H 116.03585544759312 35.489440402883446 108.98417289386896 H 0.0 **** 0.06
18050 H 116.97275548917014 36.55670037823677 110.05771205795983 H 0.0 **** 0.06
18051 C 31.155822355405093 104.19405138471456 85.01160410051828 C 0.0 **** -0.24
18052 H 30.89615774020845 103.70542873347961 84.0723728910433 H 0.0 **** 0.06
18053 H 31.45447418301083 103.44117054984505 85.74105772978534 H 0.0 **** 0.06
18054 H 30.291403848369555 104.74102401690921 85.38649153996444 H 0.0 **** 0.06
18055 H 31.979745063545124 104.88689959527628 84.84452109777435 H 0.0 **** 0.06
18056 C 56.8275127185714 2.5963753205213607 45.59161781907204 C 0.0 **** -0.24
18057 H 56.890043291227414 1.7908192750689693 46.324094784532036 H 0.0 **** 0.06
18058 H 57.52255348664045 3.390394616191987 45.86712610074494 H 0.0 **** 0.06
18059 H 55.81266869628317 2.992477849100858 45.572164887058136 H 0.0 **** 0.06
18060 H 57.08685013184805 2.2117777006183807 44.6058669469698 H 0.0 **** 0.06
18061 C 41.28868033499651 40.95210737241952 60.464488612433954 C 0.0 **** -0.24
18062 H 42.07566171272663 40.34428348322399 60.01876284141292 H 0.0 **** 0.06
18063 H 41.52448327325925 41.13893581573183 61.51262420241066 H 0.0 **** 0.06
18064 H 40.33774269358134 40.422612353497556 60.39456182632978 H 0.0 **** 0.06
18065 H 41.21631859102197 41.900930892025784 59.932983425484224 H 0.0 **** 0.06
18066 C 76.54338276602493 127.99608716820507 108.7936114721266 C 0.0 **** -0.24
18067 H 77.03274955417118 128.60060735176523 108.0296143648145 H 0.0 **** 0.06
18068 H 75.67205409684291 127.50170771521107 108.36160282825387 H 0.0 **** 0.06
18069 H 76.22666798324633 128.6372857044314 109.61595764410765 H 0.0 **** 0.06
18070 H 77.24027178304885 127.24542723730997 109.16518701858973 H 0.0 **** 0.06
18071 C 101.7040250679249 126.15868651163869 10.3975714014165 C 0.0 **** -0.24
18072 H 101.73716641960098 125.47589554276055 11.245817914069377 H 0.0 **** 0.06
18073 H 101.13103239091254 127.0451630851806 10.667022095454186 H 0.0 **** 0.06
18074 H 101.23028700772971 125.66205132282218 9.551040372899706 H 0.0 **** 0.06
18075 H 102.71862222354694 126.44965251108111 10.126181565304577 H 0.0 **** 0.06
18076 C 30.580710880453694 47.824452508159 38.85680930766824 C 0.0 **** -0.24
18077 H 31.3567595398261 48.577201987207715 38.99374264991559 H 0.0 **** 0.06
18078 H 31.036626655236944 46.83477736808558 38.822327371334154 H 0.0 **** 0.06
18079 H 30.051301554304445 48.014434518951106 37.92286729310388 H 0.0 **** 0.06
18080 H 29.878054709131987 47.87206043518644 39.689040570686984 H 0.0 **** 0.06
18081 C 18.0597723758774 101.78994667060849 15.641009972425977 C 0.0 **** -0.24
18082 H 19.054469038050627 101.3788040442301 15.46976646706321 H 0.0 **** 0.06
18083 H 18.14625908407237 102.74048468037333 16.16734028658901 H 0.0 **** 0.06
18084 H 17.47764796127325 101.09164823756524 16.24243039984657 H 0.0 **** 0.06
18085 H 17.5627912291269 101.94778706862203 14.683758586175571 H 0.0 **** 0.06
18086 C 79.87040226310444 92.70948236745915 114.10835069426946 C 0.0 **** -0.24
18087 H 79.13395890608484 93.34630772058665 114.5985177229334 H 0.0 **** 0.06
18088 H 80.48635637455521 92.21985858649805 114.86255036305684 H 0.0 **** 0.06
18089 H 80.50254435297074 93.31731796198699 113.4602886801803 H 0.0 **** 0.06
18090 H 79.35770622406801 91.9555712694119 113.51124360628552 H 0.0 **** 0.06
18091 C 21.942353532131023 58.80707339977869 16.686651565492525 C 0.0 **** -0.24
18092 H 21.834599011061087 58.26438105864983 15.74739704288686 H 0.0 **** 0.06
18093 H 22.990680006975275 59.069652684030984 16.835244540294184 H 0.0 **** 0.06
18094 H 21.605359250326437 58.17756060208944 17.51070592727922 H 0.0 **** 0.06
18095 H 21.341249344880204 59.71528488663449 16.652319680455605 H 0.0 **** 0.06
18096 C 123.69796712663822 119.48711584289094 94.15087345851558 C 0.0 **** -0.24
18097 H 123.82685532289634 120.5455867483252 94.37560487171488 H 0.0 **** 0.06
18098 H 124.27386507613272 119.23162880904971 93.26081445086139 H 0.0 **** 0.06
18099 H 122.64349106756055 119.27854716375941 93.97467660007233 H 0.0 **** 0.06
18100 H 124.05000996588635 118.89211196551324 94.99487131914938 H 0.0 **** 0.06
18101 C 24.594316140398917 25.32304308747291 130.1407999148622 C 0.0 **** -0.24
18102 H 23.80730169967177 24.569331714610712 130.15604720762607 H 0.0 **** 0.06
18103 H 25.00201116342606 25.403312837502256 129.13319205990018 H 0.0 **** 0.06
18104 H 25.386926505359156 25.034204485533735 130.83223625269318 H 0.0 **** 0.06
18105 H 24.181944811912786 26.286140309011813 130.44359150350198 H 0.0 **** 0.06
18106 C 48.3039257786769 81.55022141026033 0.27939132990147186 C 0.0 **** -0.24
18107 H 47.43301884484674 80.93193842253925 0.06200614820255623 H 0.0 **** 0.06
18108 H 48.18101958702982 82.52719523887181 -0.18939468274876958 H 0.0 **** 0.06
18109 H 49.19864726093033 81.06819437336401 -0.11301204549786803 H 0.0 **** 0.06
18110 H 48.40093287911708 81.67432794256543 1.3577179175896106 H 0.0 **** 0.06
18111 C 135.2624398838862 69.89653044230377 51.40424666603238 C 0.0 **** -0.24
18112 H 135.4778570912763 70.10924939030184 50.35709522456408 H 0.0 **** 0.06
18113 H 135.686402177584 68.92858646431408 51.672105780137485 H 0.0 **** 0.06
18114 H 134.18321078448088 69.874754927922 51.55580999755689 H 0.0 **** 0.06
18115 H 135.70187628191258 70.6730821983223 52.030354553123246 H 0.0 **** 0.06
18116 C 66.38136437186772 50.813073154959056 93.11551645399683 C 0.0 **** -0.24
18117 H 67.46926256871924 50.76424219861363 93.12400258543069 H 0.0 **** 0.06
18118 H 66.00776582982681 50.41054567731473 92.17340081820869 H 0.0 **** 0.06
18119 H 66.06317213749283 51.85113596682503 93.21850880269677 H 0.0 **** 0.06
18120 H 65.98403124761874 50.22773847593001 93.94453439585772 H 0.0 **** 0.06
18121 C 16.002853634230718 84.70219143490326 16.786669468020648 C 0.0 **** -0.24
18122 H 15.695052791990719 84.06570114948667 15.95690876031017 H 0.0 **** 0.06
18123 H 16.822361929737298 85.34565313413222 16.467224265228936 H 0.0 **** 0.06
18124 H 16.330879451203657 84.0794320109573 17.619004635014505 H 0.0 **** 0.06
18125 H 15.16019246793067 85.31743761269004 17.103906625890772 H 0.0 **** 0.06
18126 C 72.03681652931124 91.56731300591525 82.3204802032428 C 0.0 **** -0.24
18127 H 71.80523622502065 92.57934798128343 81.98848798749125 H 0.0 **** 0.06
18128 H 71.32637708008954 90.86867013463458 81.87961180223465 H 0.0 **** 0.06
18129 H 71.96908340028082 91.51765205545053 83.40773873977159 H 0.0 **** 0.06
18130 H 73.04768199581162 91.30584692273095 82.00770463669159 H 0.0 **** 0.06
18131 C 35.75767907346 57.542623746060784 123.87182405537045 C 0.0 **** -0.24
18132 H 34.886695563583146 57.816427870282595 123.2762906009324 H 0.0 **** 0.06
18133 H 36.44263008878414 58.38896046957599 123.92371163040254 H 0.0 **** 0.06
18134 H 36.26162017965737 56.694231651792805 123.40878487879543 H 0.0 **** 0.06
18135 H 35.43754221522158 57.27091711464256 124.8783264242346 H 0.0 **** 0.06
18136 C 115.78572416908185 98.51434589187892 23.27871910691823 C 0.0 **** -0.24
18137 H 115.07904979677238 99.34084154233184 23.212588361923906 H 0.0 **** 0.06
18138 H 116.38777805296115 98.47605901028592 22.370630279400928 H 0.0 **** 0.06
18139 H 115.2401079597685 97.5773616034327 23.393067195849596 H 0.0 **** 0.06
18140 H 116.43697297611999 98.66198294930089 24.14117515154328 H 0.0 **** 0.06
18141 C 98.3632637884545 103.28916986898673 103.42620868303118 C 0.0 **** -0.24
18142 H 98.02877134401282 103.94988456776053 104.22657672069903 H 0.0 **** 0.06
18143 H 98.31059797293864 103.8168305221256 102.47380455832274 H 0.0 **** 0.06
18144 H 97.72125006333476 102.40920269259448 103.39044287248939 H 0.0 **** 0.06
18145 H 99.3914933500867 102.98153676268339 103.61588443692898 H 0.0 **** 0.06
18146 C 44.33129833930084 44.739350157706355 36.367170140292224 C 0.0 **** -0.24
18147 H 44.10267685564407 45.04287348315377 35.3452704894384 H 0.0 **** 0.06
18148 H 43.5667574083142 45.1266661624895 37.040855936801016 H 0.0 **** 0.06
18149 H 45.304611571756475 45.13744585228301 36.653507734211786 H 0.0 **** 0.06
18150 H 44.35145933110266 43.65098270400199 36.426684004500395 H 0.0 **** 0.06
18151 C 20.96111961337033 35.095534266514335 81.89127654993061 C 0.0 **** -0.24
18152 H 19.971107013769256 34.79720013710869 82.23617198440392 H 0.0 **** 0.06
18153 H 21.098121010434852 34.773659204582486 80.85820530679982 H 0.0 **** 0.06
18154 H 21.7194903900928 34.6315188886594 82.52085775679163 H 0.0 **** 0.06
18155 H 21.054359211099438 36.1807483169419 81.94962877474687 H 0.0 **** 0.06
18156 C 95.9385776149309 110.03716467711146 40.60532862443 C 0.0 **** -0.24
18157 H 96.23182135683055 111.00954909905468 41.00117292578281 H 0.0 **** 0.06
18158 H 94.88791090461167 110.06502635724163 40.316911840471846 H 0.0 **** 0.06
18159 H 96.08572469114262 109.27420522896668 41.37031014045492 H 0.0 **** 0.06
18160 H 96.54916842186645 109.80072798934165 39.73334200382985 H 0.0 **** 0.06
18161 C 89.44157813701607 26.140563395462465 89.06100466636563 C 0.0 **** -0.24
18162 H 90.05882024053189 25.67057646149587 88.29438833618858 H 0.0 **** 0.06
18163 H 89.39901470769404 27.215962120825253 88.8833643589537 H 0.0 **** 0.06
18164 H 89.87485333848997 25.950988563579756 90.04232570341973 H 0.0 **** 0.06
18165 H 88.43478357111496 25.72463284194447 89.02136197060268 H 0.0 **** 0.06
18166 C 105.64421998388133 22.94728854271702 42.80447826980081 C 0.0 **** -0.24
18167 H 105.36942527728081 22.085073340402744 43.41242637260031 H 0.0 **** 0.06
18168 H 105.88143967254234 23.789324444777236 43.455067573583534 H 0.0 **** 0.06
18169 H 104.81126824796439 23.212751391312253 42.154258387439036 H 0.0 **** 0.06
18170 H 106.51510178705536 22.699962635333975 42.19699916150331 H 0.0 **** 0.06
18171 C 13.045221282770513 43.39632874812567 11.909969554878927 C 0.0 **** -0.24
18172 H 13.335502883280071 44.27606655975018 12.483832787807678 H 0.0 **** 0.06
18173 H 12.157123067038128 43.62409650713414 11.320322645915844 H 0.0 **** 0.06
18174 H 12.827556051187088 42.573391928138534 12.592160867129198 H 0.0 **** 0.06
18175 H 13.860468794987867 43.11044010314282 11.246245830613795 H 0.0 **** 0.06
18176 C 82.3766130949759 111.44361609812117 24.857864606769056 C 0.0 **** -0.24
18177 H 82.7718456871035 112.40985876941184 25.16967113604028 H 0.0 **** 0.06
18178 H 82.87084096096697 111.12724100681763 23.938848437715478 H 0.0 **** 0.06
18179 H 81.30396593743603 111.52928201212274 24.682440790242595 H 0.0 **** 0.06
18180 H 82.55896498995858 110.7071441462183 25.64114805614338 H 0.0 **** 0.06
18181 C 88.39297471064242 107.49004080865622 49.852956636243476 C 0.0 **** -0.24
18182 H 88.02665754387391 106.54350212538584 50.249765522344234 H 0.0 **** 0.06
18183 H 88.28608724195453 107.49615512081645 48.768606735233675 H 0.0 **** 0.06
18184 H 89.44456448883182 107.61060976774114 50.11590756723669 H 0.0 **** 0.06
18185 H 87.81515440665248 108.31024185185161 50.2804727949034 H 0.0 **** 0.06
18186 C 80.38016746227683 28.74946500391735 15.349954990237556 C 0.0 **** -0.24
18187 H 80.5084331484058 29.806653964311522 15.119112090046144 H 0.0 **** 0.06
18188 H 81.32326454399481 28.225965526509185 15.190432916966088 H 0.0 **** 0.06
18189 H 79.61428611363323 28.32653637277798 14.69946731425248 H 0.0 **** 0.06
18190 H 80.0741862456789 28.639857875180553 16.390160169034978 H 0.0 **** 0.06
18191 C 42.98219572038431 38.21813414753475 118.20151159902295 C 0.0 **** -0.24
18192 H 42.431574645445096 37.28607011854919 118.32718228705616 H 0.0 **** 0.06
18193 H 42.80562683723852 38.86390472066144 119.06114397088106 H 0.0 **** 0.06
18194 H 42.64539305266584 38.71955456554411 117.2941634899893 H 0.0 **** 0.06
18195 H 44.048155956253595 38.00179060414681 118.12192913119372 H 0.0 **** 0.06
18196 C 48.97549775339587 135.50934577940458 13.259542447222984 C 0.0 **** -0.24
18197 H 49.38910300470383 135.44807731398623 14.266666064408923 H 0.0 **** 0.06
18198 H 49.48398714131524 134.79233845964015 12.614904476707025 H 0.0 **** 0.06
18199 H 49.11960954975544 136.51663459268167 12.868842951464515 H 0.0 **** 0.06
18200 H 47.909901537558085 135.28011347839987 13.289896339063645 H 0.0 **** 0.06
18201 C 136.63749834393374 109.07335603269584 77.66334421463216 C 0.0 **** -0.24
18202 H 136.33092943068087 108.02708396386524 77.64099761096968 H 0.0 **** 0.06
18203 H 135.76286043313596 109.70983982522219 77.53146191638021 H 0.0 **** 0.06
18204 H 137.34850230219615 109.260254234965 76.85893793139827 H 0.0 **** 0.06
18205 H 137.10692891289943 109.29334726507197 78.62200570134618 H 0.0 **** 0.06
18206 C 83.16113213413337 57.75666818845531 14.499911955708967 C 0.0 **** -0.24
18207 H 83.6975225992439 56.8264971193143 14.690844332494159 H 0.0 **** 0.06
18208 H 83.78283252652987 58.6023391242595 14.796373453773853 H 0.0 **** 0.06
18209 H 82.23582617685453 57.76603900309141 15.076175911722054 H 0.0 **** 0.06
18210 H 82.92848040609476 57.830167085916926 13.437778665262915 H 0.0 **** 0.06
18211 C 48.86930279396965 42.092477280812105 119.66012142681723 C 0.0 **** -0.24
18212 H 48.13586565856916 42.13839654174356 118.8553603243046 H 0.0 **** 0.06
18213 H 48.39284862944045 42.360322347760174 120.60338625145488 H 0.0 **** 0.06
18214 H 49.68119133739843 42.78990907387592 119.45087753307462 H 0.0 **** 0.06
18215 H 49.26953796329525 41.080350279156505 119.7293952543925 H 0.0 **** 0.06
18216 C 71.39136845999954 102.396829704471 50.12587105242204 C 0.0 **** -0.24
18217 H 71.04167279337939 102.69962836698659 49.13857069187263 H 0.0 **** 0.06
18218 H 72.39353368373081 102.79152475390251 50.292561589042776 H 0.0 **** 0.06
18219 H 71.41503097974346 101.30893650013094 50.18339052285957 H 0.0 **** 0.06
18220 H 70.71416588425369 102.78660368487893 50.88622952304566 H 0.0 **** 0.06
18221 C 127.8815509202172 39.78193546342112 25.15605389610593 C 0.0 **** -0.24
18222 H 128.55716824198268 39.08173069038216 24.66390695497722 H 0.0 **** 0.06
18223 H 128.1427810011824 39.85616106796209 26.211691365667093 H 0.0 **** 0.06
18224 H 126.85588688141681 39.42513745043564 25.05921616817365 H 0.0 **** 0.06
18225 H 127.9714696639112 40.762584541607964 24.688894328182542 H 0.0 **** 0.06
18226 C 10.34437903543478 19.874788274857877 102.6000115729512 C 0.0 **** -0.24
18227 H 9.515373709829142 20.547766758074488 102.38014977314978 H 0.0 **** 0.06
18228 H 11.172561003001778 20.443706471128223 103.02112523956411 H 0.0 **** 0.06
18229 H 10.668184925591117 19.38727482105071 101.68077688455905 H 0.0 **** 0.06
18230 H 10.019461533792619 19.120268503963246 103.3164985581695 H 0.0 **** 0.06
18231 C 94.85520707022766 57.6602086680806 12.614840595419764 C 0.0 **** -0.24
18232 H 94.34092896789248 58.61525660958864 12.507237025840936 H 0.0 **** 0.06
18233 H 94.26588678232984 56.8745100644357 12.141808485286788 H 0.0 **** 0.06
18234 H 94.9809019229633 57.43266587595821 13.674210325062347 H 0.0 **** 0.06
18235 H 95.8336912215558 57.718773300089154 12.13823383164538 H 0.0 **** 0.06
18236 C 4.36807254414191 69.32671034255725 91.04050724766572 C 0.0 **** -0.24
18237 H 3.4388291341064985 68.8077239813248 90.80253883180465 H 0.0 **** 0.06
18238 H 4.454050328027421 70.21978291163445 90.42143594778166 H 0.0 **** 0.06
18239 H 5.2130503830893815 68.66672183581875 90.84708379323774 H 0.0 **** 0.06
18240 H 4.363729585214315 69.61296037941864 92.09236994283833 H 0.0 **** 0.06
18241 C 61.85454557269608 46.993039212818616 43.38925820083966 C 0.0 **** -0.24
18242 H 61.46508684887803 47.17039958399644 44.39138904584917 H 0.0 **** 0.06
18243 H 61.11221265575337 47.297533121991606 42.65193579518825 H 0.0 **** 0.06
18244 H 62.07346695066509 45.93198325907477 43.26732879612791 H 0.0 **** 0.06
18245 H 62.76755400093977 47.57143995673161 43.2469618055523 H 0.0 **** 0.06
18246 C 32.96162709636269 136.76911224666685 104.39134552647954 C 0.0 **** -0.24
18247 H 32.10426572046805 136.5462958577587 105.02660248034681 H 0.0 **** 0.06
18248 H 33.36600109650885 137.74651146310276 104.65645219976213 H 0.0 **** 0.06
18249 H 32.647382744688116 136.77656782555977 103.34753473187915 H 0.0 **** 0.06
18250 H 33.727290769062904 136.00780646647434 104.53472485416546 H 0.0 **** 0.06
18251 C 69.20806231266755 121.66754779078904 58.247504430472475 C 0.0 **** -0.24
18252 H 70.04109979104682 122.37013906329452 58.263817420995224 H 0.0 **** 0.06
18253 H 68.55477698071516 121.89942501971646 57.40559508505788 H 0.0 **** 0.06
18254 H 68.64623268022449 121.74912161694348 59.17828112889049 H 0.0 **** 0.06
18255 H 69.59151384444036 120.65183828824213 58.142360397329185 H 0.0 **** 0.06
18256 C 112.82829127341509 125.34300252593387 75.06212293915245 C 0.0 **** -0.24
18257 H 112.59976330846331 124.37576685370082 75.50963403663297 H 0.0 **** 0.06
18258 H 112.55312275988729 125.32792569923126 74.00733383231818 H 0.0 **** 0.06
18259 H 113.89555024708369 125.54411421300631 75.15739337365767 H 0.0 **** 0.06
18260 H 112.26443718587464 126.12130617117819 75.57485288274472 H 0.0 **** 0.06
18261 C 25.821359937571884 49.64335310007371 97.99370169601443 C 0.0 **** -0.24
18262 H 25.562871755840632 50.55766539578535 98.52710671160985 H 0.0 **** 0.06
18263 H 24.921822531251223 49.05054806965144 97.82975450086198 H 0.0 **** 0.06
18264 H 26.53462988245036 49.06715782674026 98.58357971965782 H 0.0 **** 0.06
18265 H 26.268134871281006 49.898155511814196 97.03238854358108 H 0.0 **** 0.06
18266 C 129.0178442471513 16.057479589518636 42.16376927552221 C 0.0 **** -0.24
18267 H 129.10674736223126 14.992729608224664 42.380099552816425 H 0.0 **** 0.06
18268 H 128.87360299762017 16.605270900774798 43.095104451856756 H 0.0 **** 0.06
18269 H 128.16419331063423 16.22480402979984 41.50728496271804 H 0.0 **** 0.06
18270 H 129.92743731263144 16.405962801707474 41.67410817896507 H 0.0 **** 0.06
18271 C 103.29950768118411 55.631055820317854 1.8035188367004693 C 0.0 **** -0.24
18272 H 102.85420060560259 56.04001904265891 0.8959683952428783 H 0.0 **** 0.06
18273 H 103.98392587479373 56.36290462728391 2.233194467054762 H 0.0 **** 0.06
18274 H 103.84674658593026 54.720032809536136 1.55963822188302 H 0.0 **** 0.06
18275 H 102.51306180119478 55.40228619874439 2.5218170608982042 H 0.0 **** 0.06
18276 C 131.8614094803989 119.53934002085167 22.672678018830283 C 0.0 **** -0.24
18277 H 131.13567936549163 120.0586142650468 22.047585166783477 H 0.0 **** 0.06
18278 H 132.7414523703651 120.16780943461785 22.807417569559306 H 0.0 **** 0.06
18279 H 132.1517018073531 118.6046774047783 22.192349752990424 H 0.0 **** 0.06
18280 H 131.4159351950592 119.32413946242323 23.644227023628105 H 0.0 **** 0.06
18281 C 125.35030887453173 115.14808290229553 32.30944948318467 C 0.0 **** -0.24
18282 H 125.82299229350116 115.6433091499025 33.15744853746846 H 0.0 **** 0.06
18283 H 124.6346305482476 114.41051880517847 32.67260206345451 H 0.0 **** 0.06
18284 H 126.11172244608824 114.65045011805626 31.708321313253023 H 0.0 **** 0.06
18285 H 124.8328036264001 115.8884264622119 31.699262790406166 H 0.0 **** 0.06
18286 C 2.190605555307428 98.00253601282071 76.84196665532785 C 0.0 **** -0.24
18287 H 2.0175592098192396 98.9554924258785 77.34260038062403 H 0.0 **** 0.06
18288 H 1.3168042580202837 97.36316278689486 76.9690424199235 H 0.0 **** 0.06
18289 H 3.0631723196820815 97.51651944421121 77.27704267369327 H 0.0 **** 0.06
18290 H 2.3629301357707106 98.1764083896652 75.77950125454227 H 0.0 **** 0.06
18291 C 131.7037317306815 41.71526473436015 114.67498927142964 C 0.0 **** -0.24
18292 H 130.94510829576623 42.362177401000764 115.1147113577818 H 0.0 **** 0.06
18293 H 131.704071585049 41.841786923619 113.5916748432218 H 0.0 **** 0.06
18294 H 131.48244097720666 40.67681322902135 114.91999111166038 H 0.0 **** 0.06
18295 H 132.68307903784796 41.98218898437496 115.0724353297037 H 0.0 **** 0.06
18296 C 80.53228321498784 44.97374752622471 35.433693920748965 C 0.0 **** -0.24
18297 H 79.48706007058706 44.80505607379615 35.695105261165715 H 0.0 **** 0.06
18298 H 80.58600760132163 45.54163721091305 34.50435323912488 H 0.0 **** 0.06
18299 H 81.0337075038143 44.014177937051386 35.304287633980124 H 0.0 **** 0.06
18300 H 81.02038665679777 45.53388713049037 36.231277595020316 H 0.0 **** 0.06
18301 C 27.877215732181014 99.89260595979366 110.12328407221625 C 0.0 **** -0.24
18302 H 28.78521400342487 100.49369575818386 110.17277408073181 H 0.0 **** 0.06
18303 H 27.405412111380656 100.02669085622924 109.14986450864065 H 0.0 **** 0.06
18304 H 27.1891149585241 100.20771705663945 110.90768217377507 H 0.0 **** 0.06
18305 H 28.129729857705286 98.84112195036649 110.2623742773828 H 0.0 **** 0.06
18306 C 129.50966839713834 5.806181221289741 47.879703703531845 C 0.0 **** -0.24
18307 H 130.30599674732758 5.082096248791686 47.70713725705696 H 0.0 **** 0.06
18308 H 128.5901488043608 5.280279523844143 48.1353404658058 H 0.0 **** 0.06
18309 H 129.35336114785576 6.396111452728981 46.97660712813732 H 0.0 **** 0.06
18310 H 129.79143195339907 6.465883760458425 48.70059281690976 H 0.0 **** 0.06
18311 C 0.44397169683975335 21.347785027505893 73.84249929445419 C 0.0 **** -0.24
18312 H -0.24390756055990437 21.880676368385302 73.18604593970673 H 0.0 **** 0.06
18313 H 0.30123684593056055 20.273371652275344 73.72320233944197 H 0.0 **** 0.06
18314 H 0.24751731979461056 21.627225802194708 74.87822833909456 H 0.0 **** 0.06
18315 H 1.4696674331026713 21.609263169582732 73.5838441888635 H 0.0 **** 0.06
18316 C 4.417101446407742 107.90532965481017 55.597476501134054 C 0.0 **** -0.24
18317 H 5.000544546841752 108.78593853806836 55.86748064283803 H 0.0 **** 0.06
18318 H 4.624869478750952 107.10082061988524 56.30306046225964 H 0.0 **** 0.06
18319 H 4.687529133179623 107.58564364661166 54.591069134252294 H 0.0 **** 0.06
18320 H 3.3554234829891243 108.15110192010019 55.627191369918094 H 0.0 **** 0.06
18321 C 18.243447451058024 15.956501647776804 119.43656175752886 C 0.0 **** -0.24
18322 H 18.402989903794825 15.02258490680984 119.97599462042695 H 0.0 **** 0.06
18323 H 18.85874111797206 15.966018340958783 118.5369650752101 H 0.0 **** 0.06
18324 H 18.519933587488964 16.795485443634988 120.07535568525952 H 0.0 **** 0.06
18325 H 17.192541860112087 16.041907744304865 119.16012858316526 H 0.0 **** 0.06
18326 C 91.57937564900328 118.46061299004384 41.821961853686446 C 0.0 **** -0.24
18327 H 92.11511947873635 119.360948609135 41.52385564919268 H 0.0 **** 0.06
18328 H 92.29265726819403 117.6517681506001 41.98791525768695 H 0.0 **** 0.06
18329 H 90.88199104832108 118.17447779170868 41.03447125641367 H 0.0 **** 0.06
18330 H 91.02882576090704 118.653476792731 42.742404904096475 H 0.0 **** 0.06
18331 C 52.48643977714278 38.01665537131125 108.03451340658631 C 0.0 **** -0.24
18332 H 52.86573652825095 38.62043515984611 107.21066089598844 H 0.0 **** 0.06
18333 H 52.403295804681676 36.9774998493349 107.71468065848663 H 0.0 **** 0.06
18334 H 51.50439176426613 38.38440233869616 108.33404635846469 H 0.0 **** 0.06
18335 H 53.17223967913273 38.08318574319099 108.87955145303403 H 0.0 **** 0.06
18336 C 10.744638941220103 1.4247913045483642 29.868357892033742 C 0.0 **** -0.24
18337 H 11.767109956544402 1.8034670339820877 29.865748062358364 H 0.0 **** 0.06
18338 H 10.502866824569551 1.0262542224492677 28.883247501113615 H 0.0 **** 0.06
18339 H 10.058915547568489 2.2369616717971894 30.110588779496 H 0.0 **** 0.06
18340 H 10.652478561003065 0.6354810452259017 30.61413588952084 H 0.0 **** 0.06
18341 C 49.36545211283409 84.38988920571211 74.08747731815228 C 0.0 **** -0.24
18342 H 48.93791161102284 84.63519334998881 75.06013095665307 H 0.0 **** 0.06
18343 H 50.45077794760216 84.47562162521206 74.13652655133069 H 0.0 **** 0.06
18344 H 48.97926141637538 85.07893208847796 73.33657939022274 H 0.0 **** 0.06
18345 H 49.092360906368214 83.36991308604905 73.81833063663149 H 0.0 **** 0.06
18346 C 105.95363970751214 99.12502022320072 87.87369966143478 C 0.0 **** -0.24
18347 H 106.55748773801255 100.0068600653383 88.09005852136221 H 0.0 **** 0.06
18348 H 105.03466410053034 99.16235945422468 88.45962007319807 H 0.0 **** 0.06
18349 H 106.5154455948732 98.2285208256291 88.13493329770381 H 0.0 **** 0.06
18350 H 105.70834396032836 99.10488473530681 86.81255662170861 H 0.0 **** 0.06
18351 C 76.95468403520526 107.8577134510852 133.3990319925378 C 0.0 **** -0.24
18352 H 76.2632452414551 108.57933266879337 132.96434458093347 H 0.0 **** 0.06
18353 H 77.41280912120143 107.26911176137531 132.60408512254259 H 0.0 **** 0.06
18354 H 76.41244280054589 107.19683694366603 134.07502069852 H 0.0 **** 0.06
18355 H 77.73016197745724 108.38780095883465 133.95251034316755 H 0.0 **** 0.06
18356 C 120.08808598848077 33.717028790107804 38.61827731387634 C 0.0 **** -0.24
18357 H 120.85857418014044 34.182220834410884 39.23441807995873 H 0.0 **** 0.06
18358 H 120.50751606234923 32.85203647962675 38.10445849398455 H 0.0 **** 0.06
18359 H 119.72744253164791 34.43732792981632 37.88310075862251 H 0.0 **** 0.06
18360 H 119.26050295244013 33.397966029984104 39.25140708707887 H 0.0 **** 0.06
18361 C 41.29517228585564 79.37315102325766 84.94410619752216 C 0.0 **** -0.24
18362 H 41.66834149626487 80.11457329030591 84.23742038583438 H 0.0 **** 0.06
18363 H 42.135817904302314 78.84787245108498 85.39826306778926 H 0.0 **** 0.06
18364 H 40.66117853819492 78.65782563740972 84.41896084333965 H 0.0 **** 0.06
18365 H 40.715234290625176 79.87170816834369 85.72016915436959 H 0.0 **** 0.06
18366 C 130.77984793657376 135.80797277193977 1.8120883001027437 C 0.0 **** -0.24
18367 H 130.75926497056312 135.44283822102886 2.8395167507460997 H 0.0 **** 0.06
18368 H 131.4954907559781 136.62657621092973 1.7330639681998719 H 0.0 **** 0.06
18369 H 129.78770110417068 136.1638822408844 1.5332797542470757 H 0.0 **** 0.06
18370 H 131.07701629880782 134.9989093413696 1.145302454761861 H 0.0 **** 0.06
18371 C 104.7646076521138 62.16588730402617 92.76330051817246 C 0.0 **** -0.24
18372 H 104.64858409214787 63.24719076518963 92.8388414564505 H 0.0 **** 0.06
18373 H 104.71405244561186 61.72482179410201 93.75878354058352 H 0.0 **** 0.06
18374 H 105.72838560766473 61.934373670724085 92.31105666765637 H 0.0 **** 0.06
18375 H 103.96529150408355 61.75759219347549 92.14394205035302 H 0.0 **** 0.06
18376 C 110.04434415647694 110.65465293451209 66.69922151224287 C 0.0 **** -0.24
18377 H 109.97524103533647 110.02158750532035 65.81493142653403 H 0.0 **** 0.06
18378 H 110.92743804588645 111.2887565427975 66.62412934133442 H 0.0 **** 0.06
18379 H 110.1195635949378 110.02884542791219 67.58889397748243 H 0.0 **** 0.06
18380 H 109.15341432481921 111.27924345630271 66.76882614820033 H 0.0 **** 0.06
18381 C 82.32589826055991 128.19876355168816 111.70951736551388 C 0.0 **** -0.24
18382 H 81.47942758456742 128.21057569724252 111.02199355708504 H 0.0 **** 0.06
18383 H 83.24061877438272 128.4229426178165 111.16113960288587 H 0.0 **** 0.06
18384 H 82.40755235274004 127.21272903166192 112.16665256127234 H 0.0 **** 0.06
18385 H 82.17370490019732 128.94826104941234 112.48594683917926 H 0.0 **** 0.06
18386 C 46.332154733812644 25.974933692431534 105.38427419441577 C 0.0 **** -0.24
18387 H 45.52309136934497 25.2444346569427 105.40063606399907 H 0.0 **** 0.06
18388 H 47.19354058105239 25.575181870701044 105.91887398961022 H 0.0 **** 0.06
18389 H 45.99969390389791 26.895381821820592 105.86522548542645 H 0.0 **** 0.06
18390 H 46.60897321924176 26.185265082452645 104.35152482327092 H 0.0 **** 0.06
18391 C 113.48585183826975 129.10494643567282 65.96223179992239 C 0.0 **** -0.24
18392 H 114.30577906303705 129.02129140650703 66.67629222670178 H 0.0 **** 0.06
18393 H 113.32795287631086 130.15484170110432 65.71345085670788 H 0.0 **** 0.06
18394 H 112.57778270893482 128.6939582348964 66.4012968662995 H 0.0 **** 0.06
18395 H 113.73544203111618 128.5507421686546 65.05733487985424 H 0.0 **** 0.06
18396 C 80.15227844212323 118.2103110663561 85.93632199854699 C 0.0 **** -0.24
18397 H 79.6131685079793 117.90885485816895 85.03798313429371 H 0.0 **** 0.06
18398 H 81.21236335992465 118.31891223817533 85.70415852607908 H 0.0 **** 0.06
18399 H 80.02460783632813 117.45215160647854 86.7083844760657 H 0.0 **** 0.06
18400 H 79.75895493614894 119.16182588851255 86.29310371205707 H 0.0 **** 0.06
18401 C 98.78385216200178 52.32175179975299 136.83344449981422 C 0.0 **** -0.24
18402 H 98.67871801813973 51.47783407061988 137.51602181353653 H 0.0 **** 0.06
18403 H 98.97596309459675 51.95229253229532 135.8262323618071 H 0.0 **** 0.06
18404 H 99.61459891292662 52.9484689965506 137.15567794033677 H 0.0 **** 0.06
18405 H 97.86412042021792 52.90712758539249 136.83641042759885 H 0.0 **** 0.06
18406 C 13.515112991358933 70.786916652953 134.39114862193128 C 0.0 **** -0.24
18407 H 12.999713100991926 71.68713025397419 134.05779229131377 H 0.0 **** 0.06
18408 H 14.448336219012731 70.67742036878082 133.83856013149375 H 0.0 **** 0.06
18409 H 12.881349486633667 69.9184122887465 134.21123458245881 H 0.0 **** 0.06
18410 H 13.729741226604006 70.86495473130991 135.45654282123763 H 0.0 **** 0.06
18411 C 112.08967531366613 71.738548165157 83.89358151295116 C 0.0 **** -0.24
18412 H 112.37043502077245 72.42188093319922 83.09252761531144 H 0.0 **** 0.06
18413 H 112.20648956143174 72.23899232135102 84.85535445184934 H 0.0 **** 0.06
18414 H 112.73041029486092 70.85827394411763 83.86151961957117 H 0.0 **** 0.06
18415 H 111.0499746799494 71.43673879354793 83.76448160383171 H 0.0 **** 0.06
18416 C 24.695309764295303 53.70807071141536 98.38616116086055 C 0.0 **** -0.24
18417 H 25.236500095226347 53.20687798798656 99.18816920586873 H 0.0 **** 0.06
18418 H 24.692022350393074 54.78270888179847 98.56669378195566 H 0.0 **** 0.06
18419 H 23.669337364909097 53.3404303937736 98.35623924775444 H 0.0 **** 0.06
18420 H 25.182840615961936 53.49988173129077 97.43370796861637 H 0.0 **** 0.06
18421 C 86.68694548665377 102.16130149204983 116.36427966591864 C 0.0 **** -0.24
18422 H 86.62650141625994 101.27787491860668 116.99914581042822 H 0.0 **** 0.06
18423 H 86.23982620272886 101.94314362081559 115.39443661104579 H 0.0 **** 0.06
18424 H 87.73259359486224 102.43998162095652 116.22840271272875 H 0.0 **** 0.06
18425 H 86.14989940563754 102.98496125734029 116.83454145905526 H 0.0 **** 0.06
18426 C 131.91381783303342 82.73290857825262 37.74795625280076 C 0.0 **** -0.24
18427 H 131.87796226498347 82.6124437008666 36.66560159017469 H 0.0 **** 0.06
18428 H 130.9530758975008 83.10535736893502 38.10489594236374 H 0.0 **** 0.06
18429 H 132.69835091165115 83.44459361947924 38.00798967784412 H 0.0 **** 0.06
18430 H 132.12683180809674 81.77123839619975 38.213659507140484 H 0.0 **** 0.06
18431 C 77.08287737721594 9.499350413481132 58.301988897521085 C 0.0 **** -0.24
18432 H 77.07541288163742 9.112780312711784 57.281492434892414 H 0.0 **** 0.06
18433 H 77.19803966387587 8.67189070571056 59.002383186625764 H 0.0 **** 0.06
18434 H 76.14420696324316 10.016789415814234 58.500621230752756 H 0.0 **** 0.06
18435 H 77.91348747710708 10.194613820120665 58.42027956439597 H 0.0 **** 0.06
18436 C 5.439933346239002 30.5688522139818 72.11903159426589 C 0.0 **** -0.24
18437 H 6.14911045066566 31.29329813304045 71.71761156068344 H 0.0 **** 0.06
18438 H 5.238290307677232 30.800828016153986 73.16542083079999 H 0.0 **** 0.06
18439 H 5.861576338299301 29.56740622636366 72.04274851272872 H 0.0 **** 0.06
18440 H 4.510685124622739 30.61686901591787 71.55054568233518 H 0.0 **** 0.06
18441 C 71.22653478102882 8.829661554403945 70.36018433849647 C 0.0 **** -0.24
18442 H 72.18210356651423 8.765560286605279 70.88117513591442 H 0.0 **** 0.06
18443 H 70.79824718157701 7.830578679901716 70.2659648405295 H 0.0 **** 0.06
18444 H 71.38036164946644 9.254927941376963 69.36921017925688 H 0.0 **** 0.06
18445 H 70.54608234081084 9.464812695172746 70.92681961738647 H 0.0 **** 0.06
18446 C 97.87882915242818 76.28214212461035 76.42948894646588 C 0.0 **** -0.24
18447 H 96.96929236339216 75.93532589697651 75.94027187964815 H 0.0 **** 0.06
18448 H 97.78286911075638 76.15519127612458 77.50796761107381 H 0.0 **** 0.06
18449 H 98.03609030175514 77.33630082163057 76.19981425600281 H 0.0 **** 0.06
18450 H 98.72870316620225 75.70135853615028 76.06949909070448 H 0.0 **** 0.06
18451 C 57.09050682385005 47.297563704488596 85.69609095649113 C 0.0 **** -0.24
18452 H 57.91930578572338 47.72316249584935 85.13066545740712 H 0.0 **** 0.06
18453 H 56.17259075868051 47.834026223922265 85.4535890516958 H 0.0 **** 0.06
18454 H 57.294240695449844 47.389205317858284 86.76301897305805 H 0.0 **** 0.06
18455 H 56.976830934634535 46.244892856670276 85.43731318377145 H 0.0 **** 0.06
18456 C 14.885196553297504 91.03229883404347 0.522438087217381 C 0.0 **** -0.24
18457 H 14.234062284549282 91.09233668909245 1.3938023188143802 H 0.0 **** 0.06
18458 H 15.092166979854412 92.03749030932332 0.15387540876795924 H 0.0 **** 0.06
18459 H 14.393372702039954 90.4530012343144 -0.2589124401971503 H 0.0 **** 0.06
18460 H 15.820711712239756 90.5470103077226 0.799819546136348 H 0.0 **** 0.06
18461 C 132.06251360460018 117.38042381064358 107.59885526624737 C 0.0 **** -0.24
18462 H 132.19601100210602 118.14378528274506 108.36458544927402 H 0.0 **** 0.06
18463 H 131.32957812509966 117.72374934801758 106.86769844847393 H 0.0 **** 0.06
18464 H 131.7087864421268 116.45947114532316 108.06262714616591 H 0.0 **** 0.06
18465 H 133.0144201710945 117.19454830245112 107.10113922308346 H 0.0 **** 0.06
18466 C 25.37177790119165 6.035300609663011 101.76521227077936 C 0.0 **** -0.24
18467 H 25.9022431746194 6.6090563820417 102.52591722205509 H 0.0 **** 0.06
18468 H 25.311158494323877 6.619314962235251 100.84643230664153 H 0.0 **** 0.06
18469 H 24.365381268735973 5.80824606096121 102.11927467800783 H 0.0 **** 0.06
18470 H 25.906886460109774 5.105948066048882 101.57239707280044 H 0.0 **** 0.06
18471 C 68.23820275853481 65.6084188362085 84.90381992067718 C 0.0 **** -0.24
18472 H 67.7153721052794 64.94043371499299 85.58917027005937 H 0.0 **** 0.06
18473 H 69.19010852463711 65.90644862257 85.34441016729177 H 0.0 **** 0.06
18474 H 67.62778434920472 66.49266227445612 84.72319067616978 H 0.0 **** 0.06
18475 H 68.41906988259629 65.09270186804112 83.96128922895632 H 0.0 **** 0.06
18476 C 130.30069822245696 20.92486582022201 73.31018704093748 C 0.0 **** -0.24
18477 H 130.73096818271472 20.624580231756852 74.26572113239551 H 0.0 **** 0.06
18478 H 130.2143974650033 20.05464119458088 72.6599729877911 H 0.0 **** 0.06
18479 H 130.9445576787752 21.66797167538425 72.84037992994739 H 0.0 **** 0.06
18480 H 129.31245968122187 21.353887206018612 73.47646785241832 H 0.0 **** 0.06
18481 C 90.65184674539103 55.06341435366272 79.76255706289076 C 0.0 **** -0.24
18482 H 91.35368239291802 54.230341083372565 79.79845555042301 H 0.0 **** 0.06
18483 H 89.78551577066833 54.836391157499406 80.38349196330316 H 0.0 **** 0.06
18484 H 90.33000578207404 55.22357113231644 78.73333343199717 H 0.0 **** 0.06
18485 H 91.13950386638328 55.96503846282468 80.13559411589718 H 0.0 **** 0.06
18486 C 103.15098187545608 136.79160427879884 21.328611505020945 C 0.0 **** -0.24
18487 H 102.54994981849188 136.63013126145947 22.223769601145364 H 0.0 **** 0.06
18488 H 104.02612467447815 136.14249879651933 21.357040579413535 H 0.0 **** 0.06
18489 H 103.47051509220042 137.83251910885235 21.288227576707015 H 0.0 **** 0.06
18490 H 102.55433097843976 136.5603271270887 20.445679632250858 H 0.0 **** 0.06
18491 C 95.62132293580991 69.48353482295977 0.03524672444450516 C 0.0 **** -0.24
18492 H 95.56228959530632 68.84883116053791 -0.8492573254518732 H 0.0 **** 0.06
18493 H 96.66658497279504 69.62947630803666 0.30922566059700785 H 0.0 **** 0.06
18494 H 95.09180362385939 69.00798443875513 0.8603195420030261 H 0.0 **** 0.06
18495 H 95.16521675103795 70.44977862086682 -0.18068183210004918 H 0.0 **** 0.06
18496 C 44.67356009504215 84.95262464352444 123.0106510378443 C 0.0 **** -0.24
18497 H 43.88350642994919 85.60344546777092 122.6362868922383 H 0.0 **** 0.06
18498 H 44.234169505162754 84.15598967029302 123.61114891414991 H 0.0 **** 0.06
18499 H 45.36230641459247 85.5335431709009 123.62389260889474 H 0.0 **** 0.06
18500 H 45.2136539654411 84.51740676350167 122.16890455476285 H 0.0 **** 0.06
18501 C 73.90635996203997 130.48098735438802 61.476061603154804 C 0.0 **** -0.24
18502 H 74.0579450095019 130.35253117517394 60.40524604778976 H 0.0 **** 0.06
18503 H 73.39377476283727 131.42614115057745 61.65870014738181 H 0.0 **** 0.06
18504 H 74.87225997121766 130.48744675234988 61.981730010539295 H 0.0 **** 0.06
18505 H 73.30126504163786 129.65935203633455 61.85937427660231 H 0.0 **** 0.06
18506 C 81.06396726809183 4.566664592638773 35.74965225456194 C 0.0 **** -0.24
18507 H 80.36587555764197 3.768169580226214 36.002803954063324 H 0.0 **** 0.06
18508 H 81.22776418971972 5.196828494568933 36.62466377194187 H 0.0 **** 0.06
18509 H 80.64813605338105 5.1688764463243615 34.94139587148126 H 0.0 **** 0.06
18510 H 82.01140999713397 4.1335632170046495 35.43018473269322 H 0.0 **** 0.06
18511 C 21.237937438485304 42.05701755964384 22.734092423112486 C 0.0 **** -0.24
18512 H 21.400727365516843 41.79499411223526 21.689715043253898 H 0.0 **** 0.06
18513 H 21.18713628853041 43.14173533409314 22.833358220773334 H 0.0 **** 0.06
18514 H 22.06137776928489 41.67564305565048 23.337412854609113 H 0.0 **** 0.06
18515 H 20.301818716974907 41.61730017646431 23.077282448803885 H 0.0 **** 0.06
18516 C 99.20781409520634 20.197984127120634 93.40505480769744 C 0.0 **** -0.24
18517 H 98.24856289366312 20.100094525420637 93.91198355623175 H 0.0 **** 0.06
18518 H 99.89113950794359 19.4296261613027 93.76787916983267 H 0.0 **** 0.06
18519 H 99.62693119530411 21.183299449306674 93.61023438116604 H 0.0 **** 0.06
18520 H 99.0654572926706 20.08083704713021 92.33090623812478 H 0.0 **** 0.06
18521 C 87.54121651010438 126.48620370462467 13.89363863917717 C 0.0 **** -0.24
18522 H 88.36826749441457 125.7758509947205 13.90337449282788 H 0.0 **** 0.06
18523 H 87.71222577093647 127.25340158378748 14.64820557942474 H 0.0 **** 0.06
18524 H 86.61083582472841 125.96189928352852 14.110865932767226 H 0.0 **** 0.06
18525 H 87.47572835654593 126.95164769385858 12.910074575785629 H 0.0 **** 0.06
18526 C 72.59230141055161 32.91027994425866 70.58031023782524 C 0.0 **** -0.24
18527 H 72.9403239832186 31.878887187703214 70.53956394244972 H 0.0 **** 0.06
18528 H 72.0935414434935 33.16210822607249 69.6451754846729 H 0.0 **** 0.06
18529 H 73.4429598363518 33.575131616774144 70.73029877054131 H 0.0 **** 0.06
18530 H 71.89214610277008 33.024186718976466 71.40850399510964 H 0.0 **** 0.06
18531 C 37.35778609391838 133.8268908062636 3.849623019379237 C 0.0 **** -0.24
18532 H 38.16521194207007 133.64307150263753 4.558601889253076 H 0.0 **** 0.06
18533 H 36.41331725433514 133.90537546064985 4.387697190394562 H 0.0 **** 0.06
18534 H 37.30434422621785 133.003678977704 3.1378510966788156 H 0.0 **** 0.06
18535 H 37.54960848511888 134.75738330392915 3.314993278750446 H 0.0 **** 0.06
18536 C 114.97261902783907 0.27796584227274934 38.57208845284933 C 0.0 **** -0.24
18537 H 115.05971017338732 -0.04488363670088802 37.533882075640946 H 0.0 **** 0.06
18538 H 114.91065167712114 1.365932412407659 38.609636948192076 H 0.0 **** 0.06
18539 H 115.84829803954125 -0.05642973100603399 39.12966893766708 H 0.0 **** 0.06
18540 H 114.07438292928421 -0.1540582631922689 39.012213551870644 H 0.0 **** 0.06
18541 C 127.95482881849284 51.232994338243174 97.65607756098888 C 0.0 **** -0.24
18542 H 127.61228988884926 50.30154314962908 98.10627396699817 H 0.0 **** 0.06
18543 H 128.46257597210848 51.83607041730971 98.40955031093893 H 0.0 **** 0.06
18544 H 127.09807599072525 51.78483068346429 97.26642334560319 H 0.0 **** 0.06
18545 H 128.644350083755 51.010480996311856 96.84215110976118 H 0.0 **** 0.06
18546 C 97.36828874287869 131.45262465794445 118.07406957387371 C 0.0 **** -0.24
18547 H 98.07673630618356 130.63327881406914 118.19992879952443 H 0.0 **** 0.06
18548 H 97.6449464027651 132.03845607490393 117.19669894663488 H 0.0 **** 0.06
18549 H 97.38882992205743 132.08982144728446 118.95762677502168 H 0.0 **** 0.06
18550 H 96.36507909024677 131.04767204174254 117.94045879203921 H 0.0 **** 0.06
18551 C 17.85234246074478 43.68488587692186 122.09087039793863 C 0.0 **** -0.24
18552 H 17.610432630409804 42.62794981295408 122.19471053665745 H 0.0 **** 0.06
18553 H 18.72079450223319 43.79707017166711 121.44124063381821 H 0.0 **** 0.06
18554 H 18.077516690961545 44.104285063446234 123.07167260633919 H 0.0 **** 0.06
18555 H 17.002539578332573 44.21187658357139 121.65748731153496 H 0.0 **** 0.06
18556 C 86.63726353277926 104.67115199858368 26.25752197808532 C 0.0 **** -0.24
18557 H 87.59434921318154 105.09249442040979 25.948946774429203 H 0.0 **** 0.06
18558 H 85.85157197563058 105.03453253116825 25.595760397507547 H 0.0 **** 0.06
18559 H 86.42064141938917 104.97349335353373 27.281799576239308 H 0.0 **** 0.06
18560 H 86.68578394691554 103.58335661447326 26.201960632533428 H 0.0 **** 0.06
18561 C 8.499814280835267 24.61833455465853 97.29093649604684 C 0.0 **** -0.24
18562 H 9.273486149667406 25.169923857346248 96.75495400119819 H 0.0 **** 0.06
18563 H 8.241128143162825 25.152122546665794 98.20560798939538 H 0.0 **** 0.06
18564 H 8.870138350622199 23.624307746525744 97.54103814529708 H 0.0 **** 0.06
18565 H 7.6155084464613765 24.528742516135537 96.65899933269002 H 0.0 **** 0.06
18566 C 85.96215094021639 24.43025484251973 80.41533330212854 C 0.0 **** -0.24
18567 H 84.91597332944036 24.70540244152059 80.54841695317663 H 0.0 **** 0.06
18568 H 86.46392530360839 25.191398800203814 79.81824168088627 H 0.0 **** 0.06
18569 H 86.02262513330191 23.468994148984365 79.90430116346658 H 0.0 **** 0.06
18570 H 86.44525815454347 24.35383072593946 81.38975408636963 H 0.0 **** 0.06
18571 C 136.147241520874 116.4374628937828 11.34149467808362 C 0.0 **** -0.24
18572 H 135.30720210211018 115.74552359606238 11.295573296063822 H 0.0 **** 0.06
18573 H 135.77705171671903 117.46175317958202 11.277376942331841 H 0.0 **** 0.06
18574 H 136.82487032896938 116.24285828376537 10.509595433790594 H 0.0 **** 0.06
18575 H 136.67879373581866 116.30190663880154 12.283109132773461 H 0.0 **** 0.06
18576 C 93.74164264101269 79.81345278476623 22.46463752739905 C 0.0 **** -0.24
18577 H 94.61352748994632 79.1693129552645 22.35242017990845 H 0.0 **** 0.06
18578 H 94.06674808203266 80.82521563040295 22.709395595894136 H 0.0 **** 0.06
18579 H 93.10800370462613 79.43093915172341 23.26412550692254 H 0.0 **** 0.06
18580 H 93.17908465490896 79.82885503626883 21.530845595889218 H 0.0 **** 0.06
18581 C 16.861688886259174 8.987072944967224 55.96828317011801 C 0.0 **** -0.24
18582 H 16.417493477847017 9.919334418784615 55.619513843038305 H 0.0 **** 0.06
18583 H 16.143323275924985 8.4522375943248 56.58966716146824 H 0.0 **** 0.06
18584 H 17.755257176518256 9.20763268724599 56.553276528525316 H 0.0 **** 0.06
18585 H 17.132261827621818 8.370663537285054 55.11080908733288 H 0.0 **** 0.06
18586 C 80.8202924706186 74.75662773063837 55.71600463295462 C 0.0 **** -0.24
18587 H 79.91539957350989 74.24215383103508 56.03881649086762 H 0.0 **** 0.06
18588 H 81.66607789785684 74.07061868073122 55.76433335511983 H 0.0 **** 0.06
18589 H 81.00624892839463 75.60938366227165 56.3697290598036 H 0.0 **** 0.06
18590 H 80.69383247928005 75.10557489017008 54.69173964994974 H 0.0 **** 0.06
18591 C 14.423505669493693 136.9054168466336 80.82377241557708 C 0.0 **** -0.24
18592 H 14.821208839975839 136.08326712547762 81.41949729082876 H 0.0 **** 0.06
18593 H 14.721704961629143 136.7781018872257 79.78349499663545 H 0.0 **** 0.06
18594 H 14.81530982760853 137.8497317519569 81.20241729773329 H 0.0 **** 0.06
18595 H 13.334951266150483 136.90964424233988 80.89240604441758 H 0.0 **** 0.06
18596 C 41.358760502899834 128.1786792745305 74.73258027110998 C 0.0 **** -0.24
18597 H 41.672644598107446 127.5563055126498 73.89482092672716 H 0.0 **** 0.06
18598 H 42.23615380713346 128.61228969800698 75.21150825189892 H 0.0 **** 0.06
18599 H 40.81382675271516 127.56909520086408 75.45322686719268 H 0.0 **** 0.06
18600 H 40.71068009001003 128.97572530742215 74.36869369088771 H 0.0 **** 0.06
18601 C 42.484811655896664 132.67786341517456 104.01620877527381 C 0.0 **** -0.24
18602 H 43.38196371200249 132.18630906761075 104.39222947156401 H 0.0 **** 0.06
18603 H 41.85494798832184 132.9738100981176 104.85522390638357 H 0.0 **** 0.06
18604 H 41.936058884430366 131.99003549762523 103.37414714403872 H 0.0 **** 0.06
18605 H 42.7686687600642 133.56196172473932 103.4449186499578 H 0.0 **** 0.06
18606 C 99.00920429427293 41.708553412312824 132.71135148576025 C 0.0 **** -0.24
18607 H 99.07096519873244 40.91677698797416 133.4575128071858 H 0.0 **** 0.06
18608 H 98.26186978128732 42.44119062315434 133.0208899209207 H 0.0 **** 0.06
18609 H 98.72288219307626 41.280890305666645 131.75092192234223 H 0.0 **** 0.06
18610 H 99.97886734715973 42.1962093554593 132.6178942979261 H 0.0 **** 0.06
18611 C 36.60708845261331 128.1085043503585 95.53652057407605 C 0.0 **** -0.24
18612 H 35.772505016062894 128.7332474763854 95.21702313544844 H 0.0 **** 0.06
18613 H 36.3402007230103 127.59206755074186 96.45900692703339 H 0.0 **** 0.06
18614 H 37.48317320087352 128.7327008399023 95.70863465356476 H 0.0 **** 0.06
18615 H 36.82972009419336 127.37569187538209 94.76027052495263 H 0.0 **** 0.06
18616 C 58.040291010930645 32.304491007484515 106.45160947803225 C 0.0 **** -0.24
18617 H 57.86695471653171 33.34943959477701 106.19412734639143 H 0.0 **** 0.06
18618 H 58.3619235528481 32.23645769396815 107.49122482706086 H 0.0 **** 0.06
18619 H 58.813440834869894 31.893665630189474 105.80314523699019 H 0.0 **** 0.06
18620 H 57.116670258016214 31.74029935524895 106.31875772042491 H 0.0 **** 0.06
18621 C 80.52437297822058 127.59584162375188 136.5140707763057 C 0.0 **** -0.24
18622 H 80.33347309046388 127.48623691232439 137.58212187634587 H 0.0 **** 0.06
18623 H 80.35379530116708 128.63125596139196 136.2190377730915 H 0.0 **** 0.06
18624 H 79.85393483906978 126.94285992297313 135.9560639465215 H 0.0 **** 0.06
18625 H 81.55881425722134 127.32334897720563 136.30064364180376 H 0.0 **** 0.06
18626 C 108.21302729635461 22.008058581046242 48.92755594570248 C 0.0 **** -0.24
18627 H 108.89528751679453 21.28546029321572 48.47962093279807 H 0.0 **** 0.06
18628 H 107.99895445735379 21.715972306356363 49.95496162253019 H 0.0 **** 0.06
18629 H 107.28504561313822 22.033947919886884 48.3553183604367 H 0.0 **** 0.06
18630 H 108.67341014804754 22.99555953690485 48.91768110685045 H 0.0 **** 0.06
18631 C 83.11931555023183 3.051384796292041 95.64230831441483 C 0.0 **** -0.24
18632 H 83.79914633222664 2.198727444050405 95.641019883318 H 0.0 **** 0.06
18633 H 82.18469743847508 2.7693697209523407 96.12847865974453 H 0.0 **** 0.06
18634 H 82.91857639959836 3.3574728927058572 94.61659498288543 H 0.0 **** 0.06
18635 H 83.5765876865772 3.878060252814805 96.18565160061718 H 0.0 **** 0.06
18636 C 104.44438096039775 32.027979411783505 64.7426993940811 C 0.0 **** -0.24
18637 H 105.12176398617743 32.87427347751617 64.85570665052242 H 0.0 **** 0.06
18638 H 103.4475502729953 32.31279312699979 65.0798429933306 H 0.0 **** 0.06
18639 H 104.80633707157529 31.19137596524571 65.3412564581823 H 0.0 **** 0.06
18640 H 104.40393666997139 31.732625350182445 63.694123544450164 H 0.0 **** 0.06
18641 C 19.54504042783617 35.97894639250393 10.35920173800153 C 0.0 **** -0.24
18642 H 20.18794094416205 36.18731102731094 9.504316867382727 H 0.0 **** 0.06
18643 H 19.7747154390034 34.988042451382114 10.752824525764282 H 0.0 **** 0.06
18644 H 18.501402217530114 36.01275813396802 10.046855609714356 H 0.0 **** 0.06
18645 H 19.717531960938828 36.72603769564728 11.133941899918511 H 0.0 **** 0.06
18646 C 16.815042410483443 8.939227413226718 114.25255911192983 C 0.0 **** -0.24
18647 H 17.14578159974303 9.73809336300198 114.91701294016593 H 0.0 **** 0.06
18648 H 17.597847542078853 8.726015639911537 113.52429477040556 H 0.0 **** 0.06
18649 H 15.909464077634993 9.251087819511696 113.73240142217378 H 0.0 **** 0.06
18650 H 16.6082300404845 8.043548961639289 114.83707322668491 H 0.0 **** 0.06
18651 C 4.19029768146757 87.57890737028951 52.2070307491291 C 0.0 **** -0.24
18652 H 3.402387492374288 86.99490982857533 51.73150634247378 H 0.0 **** 0.06
18653 H 4.569266745734069 87.03872874659294 53.075275886362874 H 0.0 **** 0.06
18654 H 3.788813322658143 88.54103287636849 52.5237401416054 H 0.0 **** 0.06
18655 H 5.001598881188784 87.74024094763723 51.496752682998476 H 0.0 **** 0.06
18656 C 70.49376433572908 74.59983750822184 73.2017696458289 C 0.0 **** -0.24
18657 H 70.96029162120885 75.31594641399897 72.52561110831556 H 0.0 **** 0.06
18658 H 71.01637305037727 73.64546026202238 73.13754142642154 H 0.0 **** 0.06
18659 H 69.4495255665049 74.46260504018274 72.9212955889829 H 0.0 **** 0.06
18660 H 70.5491348294923 74.97727138897862 74.22372214944971 H 0.0 **** 0.06
18661 C 109.886057605914 67.2880434985621 111.8558575867763 C 0.0 **** -0.24
18662 H 110.6286892796378 67.9790891103249 111.4554786671633 H 0.0 **** 0.06
18663 H 110.289880519928 66.79481257022397 112.74118377654412 H 0.0 **** 0.06
18664 H 109.64206496673987 66.54035906217246 111.10232553211654 H 0.0 **** 0.06
18665 H 108.9856385466282 67.84014144623882 112.12537092671346 H 0.0 **** 0.06
18666 C 105.80183253534784 53.61954796028007 46.224412970054914 C 0.0 **** -0.24
18667 H 105.39537349416713 52.624734486684304 46.03909617765375 H 0.0 **** 0.06
18668 H 106.38938597134643 53.60596150588498 47.14261852907303 H 0.0 **** 0.06
18669 H 104.98283410170234 54.33156079718849 46.32723493486317 H 0.0 **** 0.06
18670 H 106.43717259762434 53.913239620556595 45.389103892544156 H 0.0 **** 0.06
18671 C 72.96987450312805 56.42521668499194 118.42387932229605 C 0.0 **** -0.24
18672 H 72.39684668381517 57.243431551716526 118.86042671522199 H 0.0 **** 0.06
18673 H 73.24901954757989 55.71992746249191 119.20711316440713 H 0.0 **** 0.06
18674 H 73.86982388040958 56.82317008583345 117.95449004451714 H 0.0 **** 0.06
18675 H 72.36404883310365 55.916395154310976 117.67479460037043 H 0.0 **** 0.06
18676 C 115.04422915194723 100.29082604337822 47.464400601975456 C 0.0 **** -0.24
18677 H 115.22828390026706 100.69016511162158 48.46177125511724 H 0.0 **** 0.06
18678 H 115.95570439336717 99.83099195397045 47.08296969236093 H 0.0 **** 0.06
18679 H 114.73980598289194 101.10043881502469 46.80067265861689 H 0.0 **** 0.06
18680 H 114.25167808359242 99.54398010772786 47.513512970661125 H 0.0 **** 0.06
18681 C 36.62935882089296 40.37818173908937 8.530245221330151 C 0.0 **** -0.24
18682 H 37.68103332059495 40.531853434490586 8.2868795423258 H 0.0 **** 0.06
18683 H 36.06696177094696 41.2826424818131 8.298091412231525 H 0.0 **** 0.06
18684 H 36.53265758263453 40.15116361933963 9.591610225642562 H 0.0 **** 0.06
18685 H 36.23934013295124 39.546419090312014 7.943380336825012 H 0.0 **** 0.06
18686 C 79.6679222385138 110.42440593356923 101.29934593228131 C 0.0 **** -0.24
18687 H 79.66643909836989 109.34200227010534 101.4265668297545 H 0.0 **** 0.06
18688 H 79.53417861084239 110.90367461354504 102.26989799359296 H 0.0 **** 0.06
18689 H 78.85325515729846 110.7139128264239 100.63589107508596 H 0.0 **** 0.06
18690 H 80.61842399610316 110.73819870328373 100.86739502440247 H 0.0 **** 0.06
18691 C 129.11100350492157 110.19854752756873 42.39162905302358 C 0.0 **** -0.24
18692 H 129.37263464387007 109.49108329460296 43.17836189135404 H 0.0 **** 0.06
18693 H 128.3700370073113 110.90337511647968 42.76918274869814 H 0.0 **** 0.06
18694 H 128.69773712256597 109.65798232464925 41.54040804993084 H 0.0 **** 0.06
18695 H 130.0038987584919 110.74050315749415 42.079164260108875 H 0.0 **** 0.06
18696 C 18.46089906291408 27.63772491680868 86.54601821885785 C 0.0 **** -0.24
18697 H 17.63708611915075 27.237862655465733 87.13726221978436 H 0.0 **** 0.06
18698 H 19.333825841199655 26.9938302824702 86.65902556513872 H 0.0 **** 0.06
18699 H 18.702944239969668 28.642221036183116 86.89198310526073 H 0.0 **** 0.06
18700 H 18.169283229925554 27.674823913283845 85.49614586587988 H 0.0 **** 0.06
18701 C 63.80399189578732 79.30302028457004 83.36441962848397 C 0.0 **** -0.24
18702 H 63.895929886812525 78.82117670120255 84.33779428809379 H 0.0 **** 0.06
18703 H 63.640548206377986 80.37239696248133 83.50319934461467 H 0.0 **** 0.06
18704 H 62.96038070951107 78.87352526009036 82.82464817293915 H 0.0 **** 0.06
18705 H 64.71930409213303 79.14677151890952 82.79369818990921 H 0.0 **** 0.06
18706 C 14.996105527141026 34.838314309837216 118.22259119501086 C 0.0 **** -0.24
18707 H 15.583029669423468 35.2633401735878 119.03662074781613 H 0.0 **** 0.06
18708 H 14.463281431978487 33.95730383705055 118.5803118816429 H 0.0 **** 0.06
18709 H 15.660658140328167 34.55553794262507 117.40620929241024 H 0.0 **** 0.06
18710 H 14.278495284998826 35.57857562789977 117.8680368140677 H 0.0 **** 0.06
18711 C 42.33290090609632 29.489258052194998 132.14504398055743 C 0.0 **** -0.24
18712 H 41.81622356962287 30.376324261670334 132.51391552393693 H 0.0 **** 0.06
18713 H 41.85525415392131 29.14684973313149 131.2263806896774 H 0.0 **** 0.06
18714 H 42.28383102860659 28.702022240527867 132.89643197772588 H 0.0 **** 0.06
18715 H 43.375326184986044 29.73512573505684 131.9429581701223 H 0.0 **** 0.06
18716 C 11.517516626847112 56.20376613756429 18.26255432139513 C 0.0 **** -0.24
18717 H 10.60354990544505 55.842633354021245 18.735706598402317 H 0.0 **** 0.06
18718 H 11.72712749779214 57.21794452666478 18.605105952626758 H 0.0 **** 0.06
18719 H 11.390685819459804 56.20332879569497 17.180303526917584 H 0.0 **** 0.06
18720 H 12.34720205920678 55.549591451364165 18.532149697655314 H 0.0 **** 0.06
18721 C 15.924739576638956 60.03129810031086 65.05610467665105 C 0.0 **** -0.24
18722 H 15.549324980966162 59.6498121136471 64.106946970499 H 0.0 **** 0.06
18723 H 16.311406530774775 59.203836523813635 65.65223732651896 H 0.0 **** 0.06
18724 H 15.11479273457553 60.521316797023246 65.59617396670825 H 0.0 **** 0.06
18725 H 16.72366736217225 60.74805041296486 64.86860391739287 H 0.0 **** 0.06
18726 C 4.825713738719685 99.4528931552612 49.563429501469614 C 0.0 **** -0.24
18727 H 4.680554827096586 100.53087197385409 49.49204586436281 H 0.0 **** 0.06
18728 H 5.426452606991575 99.11074839160673 48.72032223302406 H 0.0 **** 0.06
18729 H 3.8576056385740003 98.95387111857511 49.54574605960423 H 0.0 **** 0.06
18730 H 5.340350675584716 99.21673602801502 50.49525123006558 H 0.0 **** 0.06
18731 C 99.60136398114368 24.47542991902708 8.883127337262351 C 0.0 **** -0.24
18732 H 99.57615242982143 23.55868993218988 9.47259935156724 H 0.0 **** 0.06
18733 H 98.68884073129385 24.552020984680127 8.292352282962327 H 0.0 **** 0.06
18734 H 100.464853263821 24.456014533239966 8.218216543926133 H 0.0 **** 0.06
18735 H 99.67562572492507 25.33447723478082 9.550197034582538 H 0.0 **** 0.06
18736 C 106.72728856775403 104.33540000962698 3.5298259410556057 C 0.0 **** -0.24
18737 H 107.72784107640317 104.60883182226553 3.195320683340608 H 0.0 **** 0.06
18738 H 106.0237510333216 104.45495657420294 2.706507544893288 H 0.0 **** 0.06
18739 H 106.43193915707336 104.9795824657032 4.357369716990114 H 0.0 **** 0.06
18740 H 106.7274211086404 103.29658199158446 3.860337941722136 H 0.0 **** 0.06
18741 C 36.30417179777669 115.94821208268286 89.18498659630667 C 0.0 **** -0.24
18742 H 35.67102512008779 116.83085263951409 89.09218565802968 H 0.0 **** 0.06
18743 H 36.43297107991776 115.70280963943685 90.23935487458088 H 0.0 **** 0.06
18744 H 37.27660683373733 116.15066045050145 88.73668781517301 H 0.0 **** 0.06
18745 H 35.834846181611795 115.10913871029345 88.6714153725016 H 0.0 **** 0.06
18746 C 22.708889231747413 117.95792015529648 94.56208566205247 C 0.0 **** -0.24
18747 H 22.22951928133837 118.93646113120963 94.57764351351182 H 0.0 **** 0.06
18748 H 22.744753638569662 117.58751657802588 93.53771952506204 H 0.0 **** 0.06
18749 H 22.13829609596143 117.26441252364322 95.18062244115727 H 0.0 **** 0.06
18750 H 23.723101960909432 118.04290857819223 94.9532743707618 H 0.0 **** 0.06
18751 C 130.8741860695945 55.23975140456585 24.422264074449103 C 0.0 **** -0.24
18752 H 130.19650130781508 55.99483527563878 24.819188147871493 H 0.0 **** 0.06
18753 H 130.56628981374655 54.25486863688806 24.77352308838863 H 0.0 **** 0.06
18754 H 131.8881946965668 55.44751083270641 24.762707238770133 H 0.0 **** 0.06
18755 H 130.8443749039187 55.262104558762516 23.332644086292056 H 0.0 **** 0.06
18756 C 108.58380545200465 58.99956291702142 123.93865982134584 C 0.0 **** -0.24
18757 H 108.70239484950372 59.6747674447773 124.78652566956721 H 0.0 **** 0.06
18758 H 109.55757204093493 58.598427576932295 123.65514051602861 H 0.0 **** 0.06
18759 H 108.15677495320283 59.546136416319285 123.09696896866737 H 0.0 **** 0.06
18760 H 107.92047913659573 58.18110930458599 124.2155440438852 H 0.0 **** 0.06
18761 C 36.57199095905884 90.59055626817161 10.155108949146353 C 0.0 **** -0.24
18762 H 36.75492088442731 91.28674261381292 9.3373515162275 H 0.0 **** 0.06
18763 H 37.20656764743458 90.8512426817727 11.002948052894965 H 0.0 **** 0.06
18764 H 36.801150875923554 89.57625972295722 9.827840974463726 H 0.0 **** 0.06
18765 H 35.5249383156974 90.64807810385861 10.453652233429722 H 0.0 **** 0.06
18766 C 73.0657824577034 6.8044905420533155 97.64731117618855 C 0.0 **** -0.24
18767 H 73.71940587051385 7.1837129902995684 96.86101868238228 H 0.0 **** 0.06
18768 H 73.13532703008791 5.716712608957607 97.68312795693754 H 0.0 **** 0.06
18769 H 72.0375175449066 7.09735241195699 97.4372559091264 H 0.0 **** 0.06
18770 H 73.37425855670527 7.220460002098378 98.60661508147945 H 0.0 **** 0.06
18771 C 91.54178371195906 53.14046866939333 97.89035060403474 C 0.0 **** -0.24
18772 H 92.44718525661685 53.469406711669734 97.38170357227024 H 0.0 **** 0.06
18773 H 91.15217533089634 53.955579851848995 98.50186775553203 H 0.0 **** 0.06
18774 H 91.77276244348712 52.28655095823626 98.52746397357764 H 0.0 **** 0.06
18775 H 90.79476416731498 52.85122979934084 97.15183067080383 H 0.0 **** 0.06
18776 C 82.92353882362028 47.425390283675824 95.91044165537238 C 0.0 **** -0.24
18777 H 83.28777895113029 47.737608706447816 94.93246426412281 H 0.0 **** 0.06
18778 H 82.80487561700912 46.34144620493237 95.92466807825605 H 0.0 **** 0.06
18779 H 81.96195349584656 47.89867891817897 96.10819041394495 H 0.0 **** 0.06
18780 H 83.639059369275 47.72240004525611 96.67729536952953 H 0.0 **** 0.06
18781 C 108.94870536782511 129.57098954292434 61.85900174103769 C 0.0 **** -0.24
18782 H 109.29848798623357 130.40191926502223 61.24681144879011 H 0.0 **** 0.06
18783 H 107.88994871324445 129.70663914824524 62.083549444051755 H 0.0 **** 0.06
18784 H 109.51664067604514 129.54165173381955 62.78942577701204 H 0.0 **** 0.06
18785 H 109.08871523059723 128.63548015017608 61.318205627577754 H 0.0 **** 0.06
18786 C 128.66811267619994 71.14014097727875 122.18114455522539 C 0.0 **** -0.24
18787 H 127.88481592333807 70.99379036821227 122.9258470631492 H 0.0 **** 0.06
18788 H 128.49113094160282 72.07366015664394 121.64656669358516 H 0.0 **** 0.06
18789 H 128.658087044895 70.30902416523725 121.47557710974297 H 0.0 **** 0.06
18790 H 129.63736033773154 71.18236334473039 122.67796776527854 H 0.0 **** 0.06
18791 C 36.00754527856954 2.4874017463359905 109.42340504465263 C 0.0 **** -0.24
18792 H 35.12121467751488 2.3668027389946964 110.04645401288232 H 0.0 **** 0.06
18793 H 36.03618799948356 3.5017177595014637 109.02572217071032 H 0.0 **** 0.06
18794 H 35.97277951501895 1.774069287515399 108.59975146264 H 0.0 **** 0.06
18795 H 36.89940768704168 2.3069502550715875 110.02384803489792 H 0.0 **** 0.06
18796 C 92.93009198413002 91.36536779742089 120.92698680208542 C 0.0 **** -0.24
18797 H 92.20703812259879 91.61071011290731 120.14943725425354 H 0.0 **** 0.06
18798 H 92.82488461343662 92.06738061638954 121.75474674202826 H 0.0 **** 0.06
18799 H 93.93892385728287 91.43125697929163 120.51940376254578 H 0.0 **** 0.06
18800 H 92.74821050552654 90.35162168076178 121.28453263642979 H 0.0 **** 0.06
18801 C 115.4069179265758 48.81988765927531 21.88910489276823 C 0.0 **** -0.24
18802 H 115.71340229123788 49.802722757134916 22.2464738109217 H 0.0 **** 0.06
18803 H 115.63456677711272 48.06958158148916 22.647066572097287 H 0.0 **** 0.06
18804 H 115.94427639612309 48.58362132441471 20.970478650938915 H 0.0 **** 0.06
18805 H 114.3346562464234 48.82339226648287 21.69180639857653 H 0.0 **** 0.06
18806 C 98.77582732177858 58.06054772532033 99.26575481614373 C 0.0 **** -0.24
18807 H 98.90608552818007 56.98941139454182 99.42197533441765 H 0.0 **** 0.06
18808 H 98.68803289799048 58.55953947600028 100.23166397694388 H 0.0 **** 0.06
18809 H 97.87117615466784 58.23546834750405 98.68278214252524 H 0.0 **** 0.06
18810 H 99.63640036415445 58.457481255060415 98.7284171042511 H 0.0 **** 0.06
18811 C 96.24173057221634 76.04970014033023 95.45082518493548 C 0.0 **** -0.24
18812 H 95.23372051953356 76.43796221210286 95.59239955506517 H 0.0 **** 0.06
18813 H 96.95955216661565 76.71922166370231 95.92566535994816 H 0.0 **** 0.06
18814 H 96.45789199730217 75.98015188174969 94.38459755733365 H 0.0 **** 0.06
18815 H 96.31514033379057 75.0587127809714 95.9008520828618 H 0.0 **** 0.06
18816 C 92.32488522549016 97.1542268724198 26.278510478167163 C 0.0 **** -0.24
18817 H 93.25183934208064 97.07580706538853 26.845554927265283 H 0.0 **** 0.06
18818 H 91.55162299458834 97.59865420652801 26.905821381126756 H 0.0 **** 0.06
18819 H 92.00860751225508 96.16122903733736 25.9607468542153 H 0.0 **** 0.06
18820 H 92.48747105303624 97.78121718042536 25.4019187500613 H 0.0 **** 0.06
18821 C 8.36718084653156 104.6876111028775 114.76599344792982 C 0.0 **** -0.24
18822 H 8.620320640821046 104.7019960777317 115.82704503586774 H 0.0 **** 0.06
18823 H 9.239154651150827 104.37683192460872 114.18996299952568 H 0.0 **** 0.06
18824 H 8.059941713202157 105.6853994980089 114.45295113554158 H 0.0 **** 0.06
18825 H 7.550336041492969 103.98507084917134 114.59783916376074 H 0.0 **** 0.06
18826 C 10.310382694872601 83.36132085769944 40.70255637450339 C 0.0 **** -0.24
18827 H 10.833872734342492 83.23404523275863 39.755276515375215 H 0.0 **** 0.06
18828 H 11.024957895503405 83.29744203384851 41.52374933876481 H 0.0 **** 0.06
18829 H 9.560391334408337 82.57730286625281 40.811330690894486 H 0.0 **** 0.06
18830 H 9.82267326404991 84.33561691764965 40.720183883128435 H 0.0 **** 0.06
18831 C 9.47596618443282 123.46958859392353 133.49735199460454 C 0.0 **** -0.24
18832 H 8.450882231083597 123.2490150718443 133.79601283415337 H 0.0 **** 0.06
18833 H 9.521812059479146 123.58676974091377 132.41453030697193 H 0.0 **** 0.06
18834 H 10.1279336591316 122.65154569606239 133.80299438554906 H 0.0 **** 0.06
18835 H 9.802540632564614 124.39347946251326 133.97708938094013 H 0.0 **** 0.06
18836 C 54.90318083532864 64.77173542417506 36.35376888220968 C 0.0 **** -0.24
18837 H 54.418171904847384 64.39263074839778 35.454371843528094 H 0.0 **** 0.06
18838 H 55.983734263462566 64.7723249266632 36.20926621564041 H 0.0 **** 0.06
18839 H 54.64948161946103 64.13170901092434 37.1996808325917 H 0.0 **** 0.06
18840 H 54.56170847887614 65.787515709854 36.55064462926814 H 0.0 **** 0.06
18841 C 67.18189104996205 21.977783749489106 26.316614052447214 C 0.0 **** -0.24
18842 H 66.67150964343385 21.01755281306373 26.3989638345096 H 0.0 **** 0.06
18843 H 67.51815255225374 22.296097323430615 27.303608861704795 H 0.0 **** 0.06
18844 H 66.49418334535831 22.71925488124316 25.90933925769759 H 0.0 **** 0.06
18845 H 68.04068393982087 21.876207344937484 25.653707550388262 H 0.0 **** 0.06
18846 C 31.963834558093083 42.788360886914376 123.36267387289583 C 0.0 **** -0.24
18847 H 33.00409934726201 43.11292902926721 123.37626547537432 H 0.0 **** 0.06
18848 H 31.653464737270156 42.52149596236791 124.37332059041938 H 0.0 **** 0.06
18849 H 31.863896488295723 41.92032094452827 122.71093918085614 H 0.0 **** 0.06
18850 H 31.335932703905428 43.596525430767144 122.99041281591985 H 0.0 **** 0.06
18851 C 34.280896524121204 49.99911434710356 108.3730311634238 C 0.0 **** -0.24
18852 H 33.4485956913781 49.60065261499642 108.95208951418039 H 0.0 **** 0.06
18853 H 35.181091523837836 50.0067050405566 108.98837208499886 H 0.0 **** 0.06
18854 H 34.04845191777156 51.01566107879398 108.05640474609407 H 0.0 **** 0.06
18855 H 34.44468259338964 49.37408151822501 107.49520820493272 H 0.0 **** 0.06
18856 C 105.45184321840298 59.29101255876253 62.62183483623443 C 0.0 **** -0.24
18857 H 104.96786339626766 60.05284098528995 62.00921658120933 H 0.0 **** 0.06
18858 H 106.36826359576804 58.95984497636721 62.131347448384105 H 0.0 **** 0.06
18859 H 104.77837815734085 58.443114721665836 62.74617358311866 H 0.0 **** 0.06
18860 H 105.69259165243494 59.71064455188258 63.59811409986264 H 0.0 **** 0.06
18861 C 35.488498473813195 48.13947577609484 13.094359677683261 C 0.0 **** -0.24
18862 H 34.70175443288019 48.83672401640533 13.385883021854593 H 0.0 **** 0.06
18863 H 35.50986802910029 47.30480810840611 13.794978178296667 H 0.0 **** 0.06
18864 H 36.450755815852744 48.65207280610218 13.108994969005678 H 0.0 **** 0.06
18865 H 35.29016006731848 47.76771905554058 12.089365720653728 H 0.0 **** 0.06
18866 C 119.89045198770202 33.83278612704833 93.40261245426922 C 0.0 **** -0.24
18867 H 120.06519277393568 34.86800495432381 93.69460503964308 H 0.0 **** 0.06
18868 H 119.41273682278711 33.298507792516496 94.22466050988788 H 0.0 **** 0.06
18869 H 120.84143231703638 33.356792223354816 93.16369348325424 H 0.0 **** 0.06
18870 H 119.24124761459018 33.8074857813357 92.52682841541645 H 0.0 **** 0.06
18871 C 49.83688145529898 98.77867754085604 68.45292158311798 C 0.0 **** -0.24
18872 H 49.8232342842236 98.39025228796983 67.43447637190991 H 0.0 **** 0.06
18873 H 49.70119238436088 99.86052066289986 68.4305373804342 H 0.0 **** 0.06
18874 H 50.793362231822215 98.541582591677 68.91877946984869 H 0.0 **** 0.06
18875 H 49.03015459746493 98.3224943668217 69.02621795168801 H 0.0 **** 0.06
18876 C 110.03488883423051 105.86790879625715 10.862718916428236 C 0.0 **** -0.24
18877 H 110.45085362691822 105.94931239955616 11.867430742104233 H 0.0 **** 0.06
18878 H 108.99265836475774 105.55541340316915 10.926869797234417 H 0.0 **** 0.06
18879 H 110.60184206036351 105.13044426610011 10.293970115377448 H 0.0 **** 0.06
18880 H 110.09581575111798 106.83569467603445 10.365735589733305 H 0.0 **** 0.06
18881 C 88.66323206962988 54.959803157389715 10.240044836232357 C 0.0 **** -0.24
18882 H 89.63589799273888 55.43227884558942 10.10090888011186 H 0.0 **** 0.06
18883 H 87.9593738434167 55.35553917613032 9.508063518420641 H 0.0 **** 0.06
18884 H 88.29836395285292 55.16757236385777 11.245431940583472 H 0.0 **** 0.06
18885 H 88.76092658108524 53.88255349167662 10.104926333880826 H 0.0 **** 0.06
18886 C 22.088052700008028 128.9917356431052 53.82745164069945 C 0.0 **** -0.24
18887 H 21.945811386788634 130.00271044372545 54.20913923268051 H 0.0 **** 0.06
18888 H 22.097071840093456 129.01401320128252 52.73703773036752 H 0.0 **** 0.06
18889 H 21.271922215211944 128.3557960960611 54.17063816968613 H 0.0 **** 0.06
18890 H 23.03564020946608 128.59563866132362 54.19089228131514 H 0.0 **** 0.06
18891 C 27.36752039685365 68.51926631983628 31.409872361080204 C 0.0 **** -0.24
18892 H 27.717660083222484 69.54964811039527 31.471416054130515 H 0.0 **** 0.06
18893 H 26.73901560738929 68.29846056178121 32.27308707727073 H 0.0 **** 0.06
18894 H 28.22293065343254 67.84480390609926 31.401055194079106 H 0.0 **** 0.06
18895 H 26.788997272908944 68.38591515412726 30.496101332194 H 0.0 **** 0.06
18896 C 82.891018661067 70.52859697917526 19.07723181617638 C 0.0 **** -0.24
18897 H 83.8320706750206 69.97902639636868 19.115616561924696 H 0.0 **** 0.06
18898 H 82.2096383391693 70.13393770358368 19.831121720650344 H 0.0 **** 0.06
18899 H 82.44475797701482 70.41598102587051 18.08980179197721 H 0.0 **** 0.06
18900 H 83.07806226231443 71.5844076790666 19.273699445084873 H 0.0 **** 0.06
18901 C 104.46577250947921 129.4949390009782 101.52187914847723 C 0.0 **** -0.24
18902 H 104.75907424403273 129.03354165359937 100.57894190799799 H 0.0 **** 0.06
18903 H 104.64915345118894 128.79752366847777 102.33943181361276 H 0.0 **** 0.06
18904 H 103.405644309681 129.74734269143403 101.48809057709109 H 0.0 **** 0.06
18905 H 105.05037740765424 130.4020042241093 101.67994534136672 H 0.0 **** 0.06
18906 C 126.24848512612992 22.238757384429874 89.63125755914655 C 0.0 **** -0.24
18907 H 127.16244869395102 22.645077478885682 90.06627906665327 H 0.0 **** 0.06
18908 H 125.46117217080452 22.991540409995494 89.6731156243127 H 0.0 **** 0.06
18909 H 125.93958341327698 21.3575539718788 90.19275671186617 H 0.0 **** 0.06
18910 H 126.43336448899144 21.963315985402687 88.59265621679398 H 0.0 **** 0.06
18911 C 92.5144975470848 114.69050732545693 72.97316595368473 C 0.0 **** -0.24
18912 H 92.89144781598287 114.3357426266804 73.93356361485617 H 0.0 **** 0.06
18913 H 91.59593563484613 114.15892902568521 72.72484442528062 H 0.0 **** 0.06
18914 H 93.26110041434804 114.50778947955473 72.20062832567513 H 0.0 **** 0.06
18915 H 92.31006453908131 115.75932255919292 73.03638941220267 H 0.0 **** 0.06
18916 C 47.97996376109404 90.74724994012531 95.68852340155945 C 0.0 **** -0.24
18917 H 48.29967971748651 91.16630482212018 94.73399220014758 H 0.0 **** 0.06
18918 H 47.23099721994308 89.97491009809895 95.51306868641274 H 0.0 **** 0.06
18919 H 47.55085064501296 91.53608740533349 96.30634736455119 H 0.0 **** 0.06
18920 H 48.838806601658874 90.31194169189418 96.1993773580466 H 0.0 **** 0.06
18921 C 124.5508769699251 9.876219434745593 83.09107556029608 C 0.0 **** -0.24
18922 H 125.42888990527779 10.047139146195747 82.46803799448327 H 0.0 **** 0.06
18923 H 124.54442340598419 10.592090306443552 83.91271373201494 H 0.0 **** 0.06
18924 H 124.58212135110546 8.862954042175971 83.49031990563441 H 0.0 **** 0.06
18925 H 123.64977716805768 10.002890229902846 82.4907691951012 H 0.0 **** 0.06
18926 C 71.60759292331363 33.33140422442108 80.16742521397526 C 0.0 **** -0.24
18927 H 71.68118120643396 32.39134233016824 80.7138036917296 H 0.0 **** 0.06
18928 H 71.95946039155132 34.1470329773386 80.79904937419792 H 0.0 **** 0.06
18929 H 70.56898202680793 33.50931338685814 79.88831805719542 H 0.0 **** 0.06
18930 H 72.2213816275385 33.27768226875503 79.26779613518232 H 0.0 **** 0.06
18931 C 11.613568199084568 31.877407395099738 115.22482855014366 C 0.0 **** -0.24
18932 H 12.129514276083796 32.765225955671255 114.85760931700062 H 0.0 **** 0.06
18933 H 10.903538412616427 32.16537780321474 115.99995873189508 H 0.0 **** 0.06
18934 H 12.342002880145145 31.180321864480803 115.63929175791526 H 0.0 **** 0.06
18935 H 11.081228691367016 31.400080055299952 114.40270065524646 H 0.0 **** 0.06
18936 C 128.47517402491582 66.36799020062918 25.261232532463993 C 0.0 **** -0.24
18937 H 128.81022530466453 65.33191945312406 25.320470690200835 H 0.0 **** 0.06
18938 H 129.33371549965227 67.03232085126312 25.362718559232917 H 0.0 **** 0.06
18939 H 127.76473612370461 66.56521472951711 26.064285802585744 H 0.0 **** 0.06
18940 H 127.99340607877286 66.53988641704285 24.2995083894224 H 0.0 **** 0.06
18941 C 72.53511809116517 8.367531588108733 76.16549310478138 C 0.0 **** -0.24
18942 H 73.21346768233751 8.873187975097522 75.4778067353252 H 0.0 **** 0.06
18943 H 71.69153138418636 9.020681875397457 76.38889909007625 H 0.0 **** 0.06
18944 H 73.06467354705684 8.130241201857928 77.08818501071886 H 0.0 **** 0.06
18945 H 72.17311281484362 7.448391038924427 75.70700341146187 H 0.0 **** 0.06
18946 C 120.02924444281541 114.51250579521582 9.58987980126231 C 0.0 **** -0.24
18947 H 119.23426742285005 114.49194662668805 10.334835428277778 H 0.0 **** 0.06
18948 H 120.90307436036261 115.01622734783211 10.00462187911604 H 0.0 **** 0.06
18949 H 119.68515024042114 115.04935461575553 8.705981291538645 H 0.0 **** 0.06
18950 H 120.29434892589876 113.49160986079505 9.313634983681457 H 0.0 **** 0.06
18951 C 124.20125929753453 27.714251795895905 132.12116001326805 C 0.0 **** -0.24
18952 H 123.74885126339103 28.26155955842904 132.94762489858394 H 0.0 **** 0.06
18953 H 124.78092553537891 26.878920313203366 132.5128121369254 H 0.0 **** 0.06
18954 H 124.85709182690869 28.380844150687835 131.56097219149902 H 0.0 **** 0.06
18955 H 123.41789658964785 27.33735059548053 131.46284894666795 H 0.0 **** 0.06
18956 C 103.75567173838527 30.680934144664263 78.61757076518907 C 0.0 **** -0.24
18957 H 104.04447402190274 30.642743447218095 79.66831279422965 H 0.0 **** 0.06
18958 H 102.78930402429198 30.193092049794416 78.48887108297882 H 0.0 **** 0.06
18959 H 104.50524037803908 30.16668331687427 78.01670391849876 H 0.0 **** 0.06
18960 H 103.68448805793021 31.720090014228646 78.29840942234955 H 0.0 **** 0.06
18961 C 62.22636552662193 92.7117990250421 36.85154653651921 C 0.0 **** -0.24
18962 H 62.44157669954646 93.73726846582235 37.154329804636234 H 0.0 **** 0.06
18963 H 63.11339513532654 92.09534523670352 37.00143755580882 H 0.0 **** 0.06
18964 H 61.944116387718125 92.6960113379222 35.79951889036903 H 0.0 **** 0.06
18965 H 61.40592924607958 92.32038845994545 37.45414026599542 H 0.0 **** 0.06
18966 C 63.966018492655365 45.871663990739506 130.85436039693468 C 0.0 **** -0.24
18967 H 64.52563413302933 46.54064345747784 130.20104742213996 H 0.0 **** 0.06
18968 H 64.43109940581168 45.85571578809326 131.84082455409754 H 0.0 **** 0.06
18969 H 63.96963153677612 44.86605671975518 130.43426873155224 H 0.0 **** 0.06
18970 H 62.938280377146995 46.22562509952782 130.9429607391692 H 0.0 **** 0.06
18971 C 54.43842050645995 48.3862581876359 69.65640401006485 C 0.0 **** -0.24
18972 H 54.52807842138978 47.29989273988974 69.68722095238897 H 0.0 **** 0.06
18973 H 54.92996808556475 48.81575603607462 70.53005193414072 H 0.0 **** 0.06
18974 H 53.38490356003655 48.66404260921446 69.65777238533168 H 0.0 **** 0.06
18975 H 54.91321738582863 48.762755821176384 68.75094254317028 H 0.0 **** 0.06
18976 C 107.9915082457859 102.92709325137457 113.94271673658704 C 0.0 **** -0.24
18977 H 108.62536729526431 103.06344093348821 113.0671757478535 H 0.0 **** 0.06
18978 H 107.92870088799287 103.86589151810767 114.49465350499531 H 0.0 **** 0.06
18979 H 108.41827433884083 102.15544988259074 114.58454408103822 H 0.0 **** 0.06
18980 H 106.99374006916028 102.62474732547014 113.62530588266637 H 0.0 **** 0.06
18981 C 120.38568536796795 73.24351550954259 104.5796181971883 C 0.0 **** -0.24
18982 H 121.054108579562 72.389604311386 104.69207779359239 H 0.0 **** 0.06
18983 H 120.96883482596827 74.16400685624623 104.58117324818122 H 0.0 **** 0.06
18984 H 119.67617785616002 73.2606621177735 105.40610720802236 H 0.0 **** 0.06
18985 H 119.84301059608495 73.15813534756961 103.63741309839321 H 0.0 **** 0.06
18986 C 91.75687927727625 71.99288220075366 27.028828259989567 C 0.0 **** -0.24
18987 H 91.73710293607726 72.35005858511292 28.057780602935992 H 0.0 **** 0.06
18988 H 90.7729735734249 72.1255155386759 26.57965792076692 H 0.0 **** 0.06
18989 H 92.02256737978661 70.93574751891475 27.01669704813567 H 0.0 **** 0.06
18990 H 92.4954679470206 72.55924760811139 26.46202932011488 H 0.0 **** 0.06
18991 C 71.59980150772992 17.651559609055738 31.14821829111129 C 0.0 **** -0.24
18992 H 71.63946494156949 16.803529453425767 30.46504942569164 H 0.0 **** 0.06
18993 H 71.40285625888384 18.563289590573092 30.58466700713751 H 0.0 **** 0.06
18994 H 72.55380332489813 17.74472395533141 31.668570159618632 H 0.0 **** 0.06
18995 H 70.80296342988265 17.493864008792777 31.87572449912173 H 0.0 **** 0.06
18996 C 40.032228589255425 40.347924988015905 119.71886543902612 C 0.0 **** -0.24
18997 H 39.07235507513565 40.34489270964866 120.23534070902431 H 0.0 **** 0.06
18998 H 40.834737539257546 40.49101260151144 120.44339110696492 H 0.0 **** 0.06
18999 H 40.05086911843637 41.15884352969334 118.99084435123532 H 0.0 **** 0.06
19000 H 40.17169950966025 39.39590355491964 119.20529832351487 H 0.0 **** 0.06
19001 C 66.6004358501868 5.172146792226357 72.34765133339795 C 0.0 **** -0.24
19002 H 67.19885124882515 5.287851716149646 71.44332865976287 H 0.0 **** 0.06
19003 H 67.22355767329454 5.360131610865551 73.22204367498205 H 0.0 **** 0.06
19004 H 66.20516130730425 4.157253144525441 72.39377068105557 H 0.0 **** 0.06
19005 H 65.7745912702889 5.883486295216642 72.32905252847365 H 0.0 **** 0.06
19006 C 3.4997431247322197 65.2511944645412 4.94582513811941 C 0.0 **** -0.24
19007 H 3.1996850993855617 66.27086418375752 4.705692100840146 H 0.0 **** 0.06
19008 H 3.6494205462932428 65.160622487958 6.022344767853298 H 0.0 **** 0.06
19009 H 4.429102938858108 65.01446815022514 4.427944801807694 H 0.0 **** 0.06
19010 H 2.719893352340023 64.55883668138374 4.627810798504015 H 0.0 **** 0.06
19011 C 78.7726271730007 35.15641263054863 36.26868800354651 C 0.0 **** -0.24
19012 H 79.54978228173327 35.91909618282554 36.21747466454736 H 0.0 **** 0.06
19013 H 78.73255390078806 34.61481936325143 35.3230538373841 H 0.0 **** 0.06
19014 H 77.808836798216 35.6318323341535 36.45642285941663 H 0.0 **** 0.06
19015 H 78.99828155166786 34.46160592333098 37.076390738582695 H 0.0 **** 0.06
19016 C 95.6498718767271 40.44766353716318 85.24572905526824 C 0.0 **** -0.24
19017 H 94.73343750006282 40.05037154625742 84.8093849611655 H 0.0 **** 0.06
19018 H 95.48305291748358 40.67053196260068 86.2999065514474 H 0.0 **** 0.06
19019 H 95.93673685703209 41.359146830311886 84.72119902093567 H 0.0 **** 0.06
19020 H 96.44675150792204 39.70891983230791 85.15146493024326 H 0.0 **** 0.06
19021 C 79.06832288860716 75.895438366993 122.32489998073237 C 0.0 **** -0.24
19022 H 78.10751107943292 75.46200048876054 122.04666743301823 H 0.0 **** 0.06
19023 H 79.49802884426435 75.32621912618131 123.14907368873264 H 0.0 **** 0.06
19024 H 78.92339539612405 76.93021236138748 122.6338398174421 H 0.0 **** 0.06
19025 H 79.74263138253934 75.86269497941375 121.4692236516322 H 0.0 **** 0.06
19026 C 121.81215862205488 93.10329810364473 46.62566593599732 C 0.0 **** -0.24
19027 H 121.65612480788661 94.11490598191796 46.25020084087595 H 0.0 **** 0.06
19028 H 121.47343578889013 93.04446680568371 47.659675001979224 H 0.0 **** 0.06
19029 H 122.87291057576232 92.8572750793727 46.575845952126855 H 0.0 **** 0.06
19030 H 121.24669236640082 92.3986726733523 46.01585040687968 H 0.0 **** 0.06
19031 C 86.37936368611648 56.90065183979931 99.74117848769629 C 0.0 **** -0.24
19032 H 86.27881669604923 57.64689374897989 98.95373748746442 H 0.0 **** 0.06
19033 H 85.84064177078517 55.99664291312459 99.45464631225872 H 0.0 **** 0.06
19034 H 85.96264059148615 57.29378384974689 100.66839860172018 H 0.0 **** 0.06
19035 H 87.43368560265992 56.665587636656596 99.88647532866008 H 0.0 **** 0.06
19036 C 130.5043169229947 75.52879610351755 39.8486387801118 C 0.0 **** -0.24
19037 H 129.75144178142057 74.80780620608203 39.53113347159996 H 0.0 **** 0.06
19038 H 130.19939821404483 75.98067783288371 40.79336287654297 H 0.0 **** 0.06
19039 H 130.60697966637193 76.30549790323289 39.090144360615795 H 0.0 **** 0.06
19040 H 131.46055274339832 75.02181450317835 39.9805509012736 H 0.0 **** 0.06
19041 C 15.208923976681547 37.189687350963226 108.36704956748649 C 0.0 **** -0.24
19042 H 14.850129628961348 37.86237227355744 107.58888016960611 H 0.0 **** 0.06
19043 H 15.675092261609763 37.77149669182148 109.16261044639312 H 0.0 **** 0.06
19044 H 15.941320396939673 36.502102931308954 107.94314952411021 H 0.0 **** 0.06
19045 H 14.371124488137681 36.6238100576813 108.77333508980506 H 0.0 **** 0.06
19046 C 32.01968677582079 69.23048541038875 61.197230776420696 C 0.0 **** -0.24
19047 H 32.0360325560747 68.9367637988823 62.246397328784695 H 0.0 **** 0.06
19048 H 32.89577280676755 69.83997927820117 60.97706828068476 H 0.0 **** 0.06
19049 H 31.115698517278986 69.80652709824047 60.99576034695254 H 0.0 **** 0.06
19050 H 32.02899791707216 68.33955448888902 60.570120409968524 H 0.0 **** 0.06
19051 C 55.7682229953175 105.58201843526226 41.565290597921205 C 0.0 **** -0.24
19052 H 56.39654944304081 104.81719436958008 42.021929506923954 H 0.0 **** 0.06
19053 H 55.6991047488431 105.40064558205233 40.49254848816899 H 0.0 **** 0.06
19054 H 56.20630896080803 106.56444114613521 41.74085641558188 H 0.0 **** 0.06
19055 H 54.77138684099032 105.54378785157877 42.00494976316008 H 0.0 **** 0.06
19056 C 102.00854961163583 20.704223694959694 1.4278773939807152 C 0.0 **** -0.24
19057 H 102.58922952542179 19.933825615861707 0.9213750152571762 H 0.0 **** 0.06
19058 H 102.30925044562053 21.685924373546243 1.0610656220581731 H 0.0 **** 0.06
19059 H 102.18724525394572 20.646946368811314 2.502284348943398 H 0.0 **** 0.06
19060 H 100.94785930217643 20.549510816155248 1.2278571540744423 H 0.0 **** 0.06
19061 C 26.822115486361724 13.136125687746151 125.49054468714405 C 0.0 **** -0.24
19062 H 25.980118671205112 12.456651196965264 125.62508044904553 H 0.0 **** 0.06
19063 H 27.021873399925795 13.259991931576437 124.42626371675516 H 0.0 **** 0.06
19064 H 27.70308789220943 12.721862771412617 125.97953431841358 H 0.0 **** 0.06
19065 H 26.581616496898974 14.103387282976179 125.93102882373051 H 0.0 **** 0.06
19066 C 26.691990382459096 3.1230372310052417 90.84580296053852 C 0.0 **** -0.24
19067 H 27.23070053492944 3.8464946738275785 91.45676343788193 H 0.0 **** 0.06
19068 H 25.664389082592265 3.458937901125296 90.70559102658147 H 0.0 **** 0.06
19069 H 26.693042542106696 2.153609258940378 91.34473821764377 H 0.0 **** 0.06
19070 H 27.179944534066067 3.0321781668105245 89.87576718689043 H 0.0 **** 0.06
19071 C 115.77219334206836 36.887740774223744 89.01922129687205 C 0.0 **** -0.24
19072 H 115.34501394002132 37.01687807018291 90.01284260408873 H 0.0 **** 0.06
19073 H 115.48888749192062 35.911410695184514 88.62544032419295 H 0.0 **** 0.06
19074 H 116.85941293016614 36.953224680744 89.07916770379614 H 0.0 **** 0.06
19075 H 115.39742383382 37.66981354104588 88.35801775823252 H 0.0 **** 0.06
19076 C 126.78938428337483 67.45290530037443 129.4980435281417 C 0.0 **** -0.24
19077 H 127.20907413886346 67.50435348481304 128.49345427577356 H 0.0 **** 0.06
19078 H 126.03961477409308 66.66322189762755 129.538575435761 H 0.0 **** 0.06
19079 H 126.32615122172723 68.40781842418994 129.74805984318544 H 0.0 **** 0.06
19080 H 127.5844882844022 67.23780009006481 130.21264865344324 H 0.0 **** 0.06
19081 C 132.13418625250318 20.847349173930525 60.984551928589326 C 0.0 **** -0.24
19082 H 131.7130558407901 21.45315897471596 61.78661907248653 H 0.0 **** 0.06
19083 H 132.2322056763697 19.815007560372123 61.321649967167446 H 0.0 **** 0.06
19084 H 133.1150717800208 21.23624617523228 60.71130888074333 H 0.0 **** 0.06
19085 H 131.47461068140302 20.885064545718365 60.11623183379669 H 0.0 **** 0.06
19086 C 32.45311232398939 29.17929534850623 0.39267880353975215 C 0.0 **** -0.24
19087 H 31.906512046392407 28.237087479184623 0.34269308383318275 H 0.0 **** 0.06
19088 H 32.21722974668532 29.78206881229815 -0.4842337439538369 H 0.0 **** 0.06
19089 H 33.523676014994834 28.976588063627958 0.41695198511683884 H 0.0 **** 0.06
19090 H 32.16478123830916 29.7192081258936 1.294319206485568 H 0.0 **** 0.06
19091 C 5.769914066850333 13.807684602116232 95.6873464296542 C 0.0 **** -0.24
19092 H 5.7519495107194984 14.282358348919246 96.6684122642727 H 0.0 **** 0.06
19093 H 4.760318408416481 13.493929810194238 95.4182410721403 H 0.0 **** 0.06
19094 H 6.42600541028105 12.938783321272247 95.71525141157954 H 0.0 **** 0.06
19095 H 6.138300725354384 14.517785638835704 94.94737290173565 H 0.0 **** 0.06
19096 C 43.22382277763393 66.86870503911697 24.12565965749755 C 0.0 **** -0.24
19097 H 42.34142128070687 67.48430557354588 24.29876545472993 H 0.0 **** 0.06
19098 H 43.550913234459244 66.98474572592119 23.09173726373708 H 0.0 **** 0.06
19099 H 42.98070399863474 65.82375717766703 24.31480834936979 H 0.0 **** 0.06
19100 H 44.02283747393119 67.1841368872465 24.796951208960976 H 0.0 **** 0.06
19101 C 106.30282367723805 21.305679876291947 12.593922165911433 C 0.0 **** -0.24
19102 H 107.1979098243149 20.6847324714779 12.589220018843466 H 0.0 **** 0.06
19103 H 105.97799411439917 21.466662970132234 13.622145043915722 H 0.0 **** 0.06
19104 H 105.51072472323642 20.806036891539918 12.036000838376303 H 0.0 **** 0.06
19105 H 106.525237028893 22.266328278090384 12.129090988074996 H 0.0 **** 0.06
19106 C 68.58311322697828 25.498680920998652 96.64406156250317 C 0.0 **** -0.24
19107 H 69.1870292721357 24.96537834234738 95.90841359377636 H 0.0 **** 0.06
19108 H 69.22403418587142 25.848984562369537 97.45392439279763 H 0.0 **** 0.06
19109 H 67.82368697756318 24.82697669477909 97.04414312963098 H 0.0 **** 0.06
19110 H 68.10030910393843 26.350934730496533 96.16727374518241 H 0.0 **** 0.06
19111 C 130.5760343890134 107.25869586017944 68.97794859934808 C 0.0 **** -0.24
19112 H 129.7145251314546 106.92950832304655 69.55843236275612 H 0.0 **** 0.06
19113 H 131.09179246925166 108.05602624262247 69.51457044015126 H 0.0 **** 0.06
19114 H 130.24027786533065 107.6305605886497 68.01029462791507 H 0.0 **** 0.06
19115 H 131.25635300986755 106.42021159266247 68.82962207019176 H 0.0 **** 0.06
19116 C 14.544427786663874 101.07100038049143 58.8978655139166 C 0.0 **** -0.24
19117 H 14.557008221315698 101.30976569001292 57.83400604884861 H 0.0 **** 0.06
19118 H 14.910186418413659 100.05423944383821 59.04543902485665 H 0.0 **** 0.06
19119 H 13.524360681078008 101.14870484311567 59.27415819471031 H 0.0 **** 0.06
19120 H 15.184906899985009 101.76990707649777 59.43550850040083 H 0.0 **** 0.06
19121 C 131.8274078587082 51.60678041412092 21.059342492022473 C 0.0 **** -0.24
19122 H 131.41401098368738 51.54946816093165 20.052249941267014 H 0.0 **** 0.06
19123 H 132.8104063086268 51.135283833276105 21.07657966562399 H 0.0 **** 0.06
19124 H 131.1645651629908 51.09064426268823 21.75444186165287 H 0.0 **** 0.06
19125 H 131.92064897952784 52.65172539958746 21.354098499546197 H 0.0 **** 0.06
19126 C 79.14315536681377 35.811903062890025 52.67112263459265 C 0.0 **** -0.24
19127 H 78.97049024042303 36.2691952517454 51.69723422369506 H 0.0 **** 0.06
19128 H 80.21128090566555 35.64107444296184 52.807707797781006 H 0.0 **** 0.06
19129 H 78.61241974121975 34.86084812947101 52.72589782437615 H 0.0 **** 0.06
19130 H 78.77843057994667 36.47649442738191 53.453650692518124 H 0.0 **** 0.06
19131 C 95.60320788102646 85.72846909298181 91.28012727760648 C 0.0 **** -0.24
19132 H 95.90061712886484 86.7756866639676 91.34946157354469 H 0.0 **** 0.06
19133 H 94.51518131649591 85.65874376003461 91.2962726407005 H 0.0 **** 0.06
19134 H 96.01512608242994 85.17784364162748 92.12464487692594 H 0.0 **** 0.06
19135 H 95.98123962408398 85.30526838164582 90.34979067474403 H 0.0 **** 0.06
19136 C 93.13403571176141 49.39946377862924 7.151127906188748 C 0.0 **** -0.24
19137 H 93.63920839418171 50.213679512452856 7.669133008675544 H 0.0 **** 0.06
19138 H 93.83566895808724 48.579341658117684 6.992673986212935 H 0.0 **** 0.06
19139 H 92.7664546392096 49.754457766331015 6.187679648963865 H 0.0 **** 0.06
19140 H 92.29582334806332 49.04974974473309 7.753132186005956 H 0.0 **** 0.06
19141 C 91.66047629259901 42.307101347052324 94.9109844250861 C 0.0 **** -0.24
19142 H 92.34319543012484 41.742438513913015 95.5461863939164 H 0.0 **** 0.06
19143 H 91.11340740299141 43.02866894662627 95.51823142465878 H 0.0 **** 0.06
19144 H 90.95671423446933 41.623111728915916 94.4367194914895 H 0.0 **** 0.06
19145 H 92.2293816956059 42.833723557426296 94.14387568845694 H 0.0 **** 0.06
19146 C 98.76405954400617 34.57857502006394 112.55742637134233 C 0.0 **** -0.24
19147 H 99.60494940022897 34.7455675910756 111.88405737373273 H 0.0 **** 0.06
19148 H 99.03326408532466 34.90569297732489 113.5623790464889 H 0.0 **** 0.06
19149 H 98.5186650961107 33.516208504949475 112.57474868327802 H 0.0 **** 0.06
19150 H 97.90127804158534 35.14530795402939 112.20850820569285 H 0.0 **** 0.06
19151 C 40.443343616022844 126.46799494438932 78.06771076163942 C 0.0 **** -0.24
19152 H 39.72165297884027 127.00924005562882 77.45536490701805 H 0.0 **** 0.06
19153 H 40.63685199695993 127.02845511823995 78.98233361374129 H 0.0 **** 0.06
19154 H 41.37324484442237 126.34724307320556 77.51146461028452 H 0.0 **** 0.06
19155 H 40.041413123924826 125.48619302887761 78.32056843135636 H 0.0 **** 0.06
19156 C 19.03571694534682 3.4508291593505227 76.73944801353824 C 0.0 **** -0.24
19157 H 18.429102169175515 3.9239391188732107 75.9664049345424 H 0.0 **** 0.06
19158 H 19.56959340135215 4.216530339584974 77.30097150010523 H 0.0 **** 0.06
19159 H 19.752684627388746 2.7742957580409886 76.27345123424527 H 0.0 **** 0.06
19160 H 18.38968370824177 2.8874940307036248 77.41341069027969 H 0.0 **** 0.06
19161 C 62.412582800005254 23.27807636044696 12.731309021280538 C 0.0 **** -0.24
19162 H 62.729955562951275 24.07712327908439 12.060851982125882 H 0.0 **** 0.06
19163 H 63.27470693932618 22.903749767031712 13.282861927100328 H 0.0 **** 0.06
19164 H 61.97327550489568 22.468662047464306 12.149348049338045 H 0.0 **** 0.06
19165 H 61.6723434144279 23.66576696793942 13.432039184308138 H 0.0 **** 0.06
19166 C 47.833626749029406 80.36067991256255 103.09268566854172 C 0.0 **** -0.24
19167 H 48.682204699630915 80.36701989275213 102.40834412788291 H 0.0 **** 0.06
19168 H 47.45771049890888 81.37651390772476 103.21460502189143 H 0.0 **** 0.06
19169 H 48.15224548850392 79.97185028683487 104.0601688528653 H 0.0 **** 0.06
19170 H 47.04581251998036 79.72647436367754 102.68713038386946 H 0.0 **** 0.06
19171 C 23.19720632219756 27.455339801128503 119.9547810682576 C 0.0 **** -0.24
19172 H 23.67523521961556 28.381218020234087 119.63378264007932 H 0.0 **** 0.06
19173 H 22.416654822587873 27.68335895479214 120.68058867461133 H 0.0 **** 0.06
19174 H 23.941126400754285 26.803414156209783 120.41212547702028 H 0.0 **** 0.06
19175 H 22.758069703586017 26.956020268814882 119.09170282811102 H 0.0 **** 0.06
19176 C 53.54711542437394 11.388561006402362 74.33126233168198 C 0.0 **** -0.24
19177 H 52.46700561519589 11.464575572953045 74.45659647962518 H 0.0 **** 0.06
19178 H 53.933260430664916 12.326578564239135 73.93064253555377 H 0.0 **** 0.06
19179 H 53.77571304438047 10.577013857437624 73.63995527546744 H 0.0 **** 0.06
19180 H 54.01102034745605 11.185410611126773 75.29600590364156 H 0.0 **** 0.06
19181 C 120.5653023884582 92.56649430163553 16.117773671046194 C 0.0 **** -0.24
19182 H 121.40962658489339 92.79717528741487 16.767504386547316 H 0.0 **** 0.06
19183 H 119.64614129088937 92.56580074035477 16.703455707032973 H 0.0 **** 0.06
19184 H 120.71174208495984 91.5839778342644 15.668773802968445 H 0.0 **** 0.06
19185 H 120.49555009134886 93.31781630903615 15.331705683702523 H 0.0 **** 0.06
19186 C 10.612868132541536 9.973384453883341 19.261927565726126 C 0.0 **** -0.24
19187 H 10.45055388376666 10.406033316381013 20.248585590748064 H 0.0 **** 0.06
19188 H 10.780263067780439 8.900283129734078 19.359383146522646 H 0.0 **** 0.06
19189 H 11.48553022309352 10.437280440501695 18.801356738968423 H 0.0 **** 0.06
19190 H 9.736087245705733 10.150303142822395 18.63935620884976 H 0.0 **** 0.06
19191 C 55.65089701160474 30.83014367963321 64.88090014218628 C 0.0 **** -0.24
19192 H 56.436997602963245 30.08050666369317 64.79965241795526 H 0.0 **** 0.06
19193 H 54.724923029327044 30.35167491084985 65.20309415062465 H 0.0 **** 0.06
19194 H 55.49733012843747 31.302614429116204 63.91122101063809 H 0.0 **** 0.06
19195 H 55.94240519475434 31.58506932353015 65.6105070720547 H 0.0 **** 0.06
19196 C 68.51538937785415 73.24027579380964 41.003457977754955 C 0.0 **** -0.24
19197 H 67.5369535440144 73.35323047075394 40.538032841336914 H 0.0 **** 0.06
19198 H 68.67799494507557 72.1931546449535 41.25998052841626 H 0.0 **** 0.06
19199 H 68.56052539703914 73.84679695795597 41.90796882700133 H 0.0 **** 0.06
19200 H 69.28844246807627 73.56853090736865 40.30759618779228 H 0.0 **** 0.06
19201 C 99.45863667912968 76.35902426623103 112.96387161382452 C 0.0 **** -0.24
19202 H 99.45328479531068 75.61131812622737 113.75661679434111 H 0.0 **** 0.06
19203 H 99.21310388765127 75.88326593253622 112.01348442961603 H 0.0 **** 0.06
19204 H 100.44763345271375 76.81277845600577 112.89904427438469 H 0.0 **** 0.06
19205 H 98.71959492194739 77.12860250480506 113.18599694429699 H 0.0 **** 0.06
19206 C 35.63634136383177 62.48661463535214 18.252084209123694 C 0.0 **** -0.24
19207 H 35.84308833712899 63.32420447493429 17.585899541378524 H 0.0 **** 0.06
19208 H 34.592702687288565 62.18982392181786 18.1495725909582 H 0.0 **** 0.06
19209 H 35.83010182401858 62.78519432009601 19.281848294554294 H 0.0 **** 0.06
19210 H 36.28117827481568 61.647115566253746 17.99074005130427 H 0.0 **** 0.06
19211 C 75.20552637749947 117.31378646373284 23.460929377087133 C 0.0 **** -0.24
19212 H 75.8343158614972 117.48644720204331 22.587324701818332 H 0.0 **** 0.06
19213 H 75.82484430917356 116.97762669328657 24.2934310529336 H 0.0 **** 0.06
19214 H 74.46291777539824 116.5506456284023 23.228007520103944 H 0.0 **** 0.06
19215 H 74.70071240897443 118.2410423824262 23.734564984862153 H 0.0 **** 0.06
19216 C 60.243737815328956 75.53931726648023 72.27355662718293 C 0.0 **** -0.24
19217 H 60.68340472891458 74.61042962380793 71.9087801680264 H 0.0 **** 0.06
19218 H 60.865395559750596 76.38043109601091 71.9652868164398 H 0.0 **** 0.06
19219 H 60.18473862959303 75.50970391920174 73.36109060852834 H 0.0 **** 0.06
19220 H 59.242604079475456 75.65421511252498 71.85844968312767 H 0.0 **** 0.06
19221 C 112.80095211662805 67.591911033732 64.90991042310094 C 0.0 **** -0.24
19222 H 113.51722141417676 68.37821891792555 65.14866401325261 H 0.0 **** 0.06
19223 H 111.85367642634216 68.04159299023507 64.61341095172477 H 0.0 **** 0.06
19224 H 112.64667777336422 66.96312621914291 65.78781601518052 H 0.0 **** 0.06
19225 H 113.187310771879 66.98413121502966 64.09187391304688 H 0.0 **** 0.06
19226 C 93.1343983649912 22.929343886716268 29.257347134371543 C 0.0 **** -0.24
19227 H 93.58233711443305 22.076725670831166 28.747593187274646 H 0.0 **** 0.06
19228 H 92.0689186609168 22.96973000276411 29.02883440007497 H 0.0 **** 0.06
19229 H 93.61345169638598 23.848443780702894 28.920401534977458 H 0.0 **** 0.06
19230 H 93.27106496538256 22.82195754170297 30.3332037490633 H 0.0 **** 0.06
19231 C 102.80171295073386 89.82347285645466 25.87595634046562 C 0.0 **** -0.24
19232 H 102.92050669181782 90.70700743101342 25.248284616574324 H 0.0 **** 0.06
19233 H 103.69618947141986 89.68873683824438 26.48508939325211 H 0.0 **** 0.06
19234 H 102.65759181214496 88.94602418750411 25.244450159348077 H 0.0 **** 0.06
19235 H 101.93580379461844 89.95173465912373 26.524170215446446 H 0.0 **** 0.06
19236 C 113.71777146588923 78.79725877256925 90.03050650939264 C 0.0 **** -0.24
19237 H 114.16145514469076 78.80918443563581 89.03501686670887 H 0.0 **** 0.06
19238 H 112.75504367621423 79.3081790491338 90.00527249993638 H 0.0 **** 0.06
19239 H 114.38109524697688 79.30783123370534 90.72940094571808 H 0.0 **** 0.06
19240 H 113.574436373196 77.76637033900644 90.35317680191181 H 0.0 **** 0.06
19241 C 13.102880383692877 80.32369892113634 81.52626976885882 C 0.0 **** -0.24
19242 H 13.439072911868436 79.55892598794934 82.22669251599707 H 0.0 **** 0.06
19243 H 13.66151678274582 80.23340881990146 80.59366845008898 H 0.0 **** 0.06
19244 H 13.271241362177307 81.30984623672579 81.95720484770246 H 0.0 **** 0.06
19245 H 12.039872945952538 80.19048167611685 81.32686719479321 H 0.0 **** 0.06
19246 C 54.14178997735556 50.253249456292735 65.44875039301257 C 0.0 **** -0.24
19247 H 54.20667456031376 49.580751369146356 64.59416902537419 H 0.0 **** 0.06
19248 H 55.07449575243663 50.80968522856381 65.54425043035525 H 0.0 **** 0.06
19249 H 53.97037090325068 49.67217296944102 66.35536702663148 H 0.0 **** 0.06
19250 H 53.31595664384642 50.94919339454168 65.30189198220074 H 0.0 **** 0.06
19251 C 64.76938286145534 89.49209155450191 59.34572703517165 C 0.0 **** -0.24
19252 H 64.8355713984202 89.25350036807265 60.40758080070037 H 0.0 **** 0.06
19253 H 65.6867815589989 89.98874962893589 59.027484177247175 H 0.0 **** 0.06
19254 H 63.92040103651948 90.15321725904938 59.1750616498976 H 0.0 **** 0.06
19255 H 64.63578980477044 88.57354950502862 58.774666232201525 H 0.0 **** 0.06
19256 C 12.383977893203394 58.13288654546943 6.631256378572147 C 0.0 **** -0.24
19257 H 13.436811560026143 58.30986005605524 6.410707692053194 H 0.0 **** 0.06
19258 H 12.285210431509768 57.22588425336971 7.2268811342677 H 0.0 **** 0.06
19259 H 11.83237739583734 58.017639623604225 5.698619222112285 H 0.0 **** 0.06
19260 H 11.983439650249267 58.97953075934652 7.188175331518266 H 0.0 **** 0.06
19261 C 60.27715693461302 96.94291448558668 65.69860400207548 C 0.0 **** -0.24
19262 H 59.632537941373286 96.41717414786929 64.99523536044056 H 0.0 **** 0.06
19263 H 59.84004810210992 96.89930416565029 66.6968014418951 H 0.0 **** 0.06
19264 H 60.37821770904233 97.98403795200785 65.39118777764156 H 0.0 **** 0.06
19265 H 61.25995913775837 96.47127726120031 65.71184179380985 H 0.0 **** 0.06
19266 C 38.32571760870161 12.646752720537734 11.032195507930794 C 0.0 **** -0.24
19267 H 39.09400654653932 12.427103718231848 11.773685558951826 H 0.0 **** 0.06
19268 H 37.790587176663905 11.730565473865937 10.781284288141023 H 0.0 **** 0.06
19269 H 38.79326652161396 13.052734311814788 10.134912362145883 H 0.0 **** 0.06
19270 H 37.6267028477336 13.376973441188454 11.438867469483199 H 0.0 **** 0.06
19271 C 58.363065273253866 121.34180425534811 104.30322245077564 C 0.0 **** -0.24
19272 H 59.161346055644245 121.04208511483483 104.98130595191657 H 0.0 **** 0.06
19273 H 58.38396474921869 122.42418312926242 104.17357570426513 H 0.0 **** 0.06
19274 H 57.40088760507483 121.04498484470305 104.72087475150413 H 0.0 **** 0.06
19275 H 58.505011827586145 120.85681258954067 103.33821765698929 H 0.0 **** 0.06
19276 C 31.33729875048985 64.00655051847636 31.08421847600283 C 0.0 **** -0.24
19277 H 31.741718927479383 65.006803997835 31.24051747593731 H 0.0 **** 0.06
19278 H 32.14425472075415 63.275556838125624 31.14150194685348 H 0.0 **** 0.06
19279 H 30.86796443866055 63.95449627441754 30.10191775227429 H 0.0 **** 0.06
19280 H 30.595470217651176 63.79032059882307 31.852884920427528 H 0.0 **** 0.06
19281 C 19.96583376435035 17.255221474366493 27.771528752257325 C 0.0 **** -0.24
19282 H 19.37072108264863 16.521514604878377 28.31645007579374 H 0.0 **** 0.06
19283 H 20.985796419226233 17.253578705231803 28.158694923489207 H 0.0 **** 0.06
19284 H 19.52937727876514 18.24534940975218 27.900874974872295 H 0.0 **** 0.06
19285 H 19.978020100156073 16.998385281186955 26.71282073172611 H 0.0 **** 0.06
19286 C 56.00526852603858 16.42476920047477 9.502589068316098 C 0.0 **** -0.24
19287 H 56.73836032373049 15.61949650495805 9.47664118934756 H 0.0 **** 0.06
19288 H 55.236841815376636 16.24155178750118 8.750698191022622 H 0.0 **** 0.06
19289 H 56.500832850418675 17.37358813979415 9.292532483166099 H 0.0 **** 0.06
19290 H 55.54516156155921 16.46608407867751 10.489952088014093 H 0.0 **** 0.06
19291 C 48.05903132921773 13.42617255325758 18.60639880495536 C 0.0 **** -0.24
19292 H 48.38218559935578 14.457552266286477 18.464144520999554 H 0.0 **** 0.06
19293 H 46.97273335750259 13.371415247524858 18.525550277725813 H 0.0 **** 0.06
19294 H 48.36857432917992 13.081101540551305 19.592163543951983 H 0.0 **** 0.06
19295 H 48.512129360803215 12.795690014619225 17.84183816665299 H 0.0 **** 0.06
19296 C 9.3638828459387 16.038996828176167 42.00254219250458 C 0.0 **** -0.24
19297 H 8.6399686200587 16.647360021806257 42.54337341665712 H 0.0 **** 0.06
19298 H 10.288814047123676 15.980021175955017 42.57593576703644 H 0.0 **** 0.06
19299 H 9.566641830893186 16.4925013350746 41.03197197367339 H 0.0 **** 0.06
19300 H 8.961302233266078 15.036653484389717 41.85776057825315 H 0.0 **** 0.06
19301 C 111.71734857323935 8.95485941135746 83.4098331025644 C 0.0 **** -0.24
19302 H 112.07393346860368 9.655804338450196 82.65565378401513 H 0.0 **** 0.06
19303 H 112.18429415911913 7.982360968747571 83.25096931265895 H 0.0 **** 0.06
19304 H 110.6352164012863 8.855545682522518 83.33000974882913 H 0.0 **** 0.06
19305 H 111.97744360288962 9.325329275988736 84.40191715360754 H 0.0 **** 0.06
19306 C 53.257994632639964 13.587120893010677 26.674821973664905 C 0.0 **** -0.24
19307 H 52.992898462373546 13.609354129207354 27.731148957036226 H 0.0 **** 0.06
19308 H 52.35062141286903 13.585412315177926 26.071972141368462 H 0.0 **** 0.06
19309 H 53.83707160017104 12.687369537176057 26.464183709258265 H 0.0 **** 0.06
19310 H 53.85423728921751 14.467268226287175 26.431812756231295 H 0.0 **** 0.06
19311 C 54.762911673400936 0.991751229569843 43.15658568964441 C 0.0 **** -0.24
19312 H 55.207358910275985 0.5202659911453793 44.032863822745156 H 0.0 **** 0.06
19313 H 55.38540552787711 0.7948132793915761 42.2837151891441 H 0.0 **** 0.06
19314 H 54.694811700021575 2.067687967289828 43.319471000979036 H 0.0 **** 0.06
19315 H 53.76518529001632 0.5857188930513644 42.992854744831675 H 0.0 **** 0.06
19316 C 83.89413211248075 5.569098334565865 67.00463756887837 C 0.0 **** -0.24
19317 H 83.25249323386144 5.451912472981832 67.87698211495689 H 0.0 **** 0.06
19318 H 84.21300927506263 4.587183596733638 66.65385430093141 H 0.0 **** 0.06
19319 H 84.76873989043341 6.161459321761896 67.27315339615711 H 0.0 **** 0.06
19320 H 83.34184833357227 6.07542708434957 66.2132799602133 H 0.0 **** 0.06
19321 C 121.3470976636097 13.250926037242124 57.95721530303756 C 0.0 **** -0.24
19322 H 121.72499987812915 14.262376420018342 58.11054227118446 H 0.0 **** 0.06
19323 H 121.18359030552352 13.08341103011007 56.89251433979102 H 0.0 **** 0.06
19324 H 120.40622181401926 13.129738616081823 58.49381878421616 H 0.0 **** 0.06
19325 H 122.07405202112955 12.530395892848702 58.331059791763195 H 0.0 **** 0.06
19326 C 136.15894740352988 96.60492393395467 95.41049294333362 C 0.0 **** -0.24
19327 H 137.2428748160356 96.70942417060742 95.35902310991031 H 0.0 **** 0.06
19328 H 135.70941449871054 97.04319814624915 94.518942615546 H 0.0 **** 0.06
19329 H 135.78637274259947 97.11909640649684 96.2959746277628 H 0.0 **** 0.06
19330 H 135.89806059109932 95.54896410574023 95.4665633331972 H 0.0 **** 0.06
19331 C 102.77033239513557 103.36032625239662 64.40162405337423 C 0.0 **** -0.24
19332 H 103.78297457954076 102.96377345996183 64.32772714107193 H 0.0 **** 0.06
19333 H 102.62007085072808 103.7919083405975 65.39143689072483 H 0.0 **** 0.06
19334 H 102.05324251360665 102.55457444446142 64.24229351062525 H 0.0 **** 0.06
19335 H 102.62658361606357 104.12989495950495 63.642967100609724 H 0.0 **** 0.06
19336 C 26.501612070130193 133.7404703953399 28.292563260781783 C 0.0 **** -0.24
19337 H 26.81976904081131 133.18893886343056 27.407377849075168 H 0.0 **** 0.06
19338 H 25.890590007522235 133.0946661845676 28.923574389540583 H 0.0 **** 0.06
19339 H 25.91863253545762 134.60947497482937 27.98937699510197 H 0.0 **** 0.06
19340 H 27.379879794769494 134.06871197848614 28.8495761754302 H 0.0 **** 0.06
19341 C 124.97019539234259 106.29033352537743 87.55393266265062 C 0.0 **** -0.24
19342 H 125.42699467445794 105.99072093558517 88.49778001703103 H 0.0 **** 0.06
19343 H 124.10657056735363 105.65680579353365 87.35135220194297 H 0.0 **** 0.06
19344 H 125.69743497648841 106.18485006795554 86.74902280484687 H 0.0 **** 0.06
19345 H 124.65053585227258 107.33089182948478 87.62016190800756 H 0.0 **** 0.06
19346 C 4.182104756107719 126.88685656639956 36.84564051700077 C 0.0 **** -0.24
19347 H 4.356906177401015 127.21314674640354 37.87170841131473 H 0.0 **** 0.06
19348 H 4.391193507075968 127.7109158216029 36.16208555232284 H 0.0 **** 0.06
19349 H 3.141870778670409 126.5789756251936 36.73564642368602 H 0.0 **** 0.06
19350 H 4.837165131205495 126.0468092883825 36.61469996577967 H 0.0 **** 0.06
19351 C 23.264567526510177 68.42846692672993 36.76445686470382 C 0.0 **** -0.24
19352 H 23.148805601495724 69.51248841385501 36.79710226237805 H 0.0 **** 0.06
19353 H 23.61487253342682 68.13050466934044 35.775745581853116 H 0.0 **** 0.06
19354 H 22.304857360388723 67.95523643238255 36.96913539714906 H 0.0 **** 0.06
19355 H 23.990411381191052 68.11868732720654 37.516339410008015 H 0.0 **** 0.06
19356 C 132.86246920228785 103.06101790168549 127.46740199774706 C 0.0 **** -0.24
19357 H 133.52314068404178 102.6077784897476 128.2065821514791 H 0.0 **** 0.06
19358 H 133.43266655197758 103.75127597639027 126.84517706707987 H 0.0 **** 0.06
19359 H 132.06630853631478 103.60322655443775 127.97719608995277 H 0.0 **** 0.06
19360 H 132.4280045935165 102.2816006855532 126.84160382086736 H 0.0 **** 0.06
19361 C 65.74263300180024 86.65887059962796 103.24203105789371 C 0.0 **** -0.24
19362 H 65.38298018739079 86.19713093440657 102.3227126267456 H 0.0 **** 0.06
19363 H 65.58883506077473 87.73740642007027 103.1894686072962 H 0.0 **** 0.06
19364 H 66.80514546686928 86.44872638232079 103.36244163757705 H 0.0 **** 0.06
19365 H 65.19244758683908 86.2543462480146 104.09063582131118 H 0.0 **** 0.06
19366 C 136.3181103102661 100.24222151917931 45.76195010120658 C 0.0 **** -0.24
19367 H 135.900927558019 100.83754138587062 44.94888187810048 H 0.0 **** 0.06
19368 H 136.5844342934226 100.89710878954503 46.59205509275729 H 0.0 **** 0.06
19369 H 137.2074226481048 99.7203024559006 45.40958085126571 H 0.0 **** 0.06
19370 H 135.57723665516926 99.51555242106326 46.09493252978433 H 0.0 **** 0.06
19371 C 70.50484388312951 14.130454456127858 26.3689063989803 C 0.0 **** -0.24
19372 H 71.51067221224203 14.531897308840747 26.24840313689117 H 0.0 **** 0.06
19373 H 70.17656814808096 13.685154268837216 25.429676474087245 H 0.0 **** 0.06
19374 H 69.82413415544099 14.934088021421509 26.64836906849945 H 0.0 **** 0.06
19375 H 70.50971634381891 13.370497212551495 27.150916216729115 H 0.0 **** 0.06
19376 C 49.3146224007927 24.078386920025082 129.36439625245097 C 0.0 **** -0.24
19377 H 49.93829538273144 24.230623054591035 128.48340803391562 H 0.0 **** 0.06
19378 H 49.275961602612824 23.015773031998464 129.60144070118196 H 0.0 **** 0.06
19379 H 48.30788968739677 24.443523875430543 129.16298305275816 H 0.0 **** 0.06
19380 H 49.73846605553723 24.623944393134508 130.20743104190484 H 0.0 **** 0.06
19381 C 25.665353986441147 28.97115108635515 21.035780126797924 C 0.0 **** -0.24
19382 H 26.68050677746001 28.596696062891624 21.17234281688875 H 0.0 **** 0.06
19383 H 25.057300793038507 28.20423513990022 20.553899021747497 H 0.0 **** 0.06
19384 H 25.689805060512043 29.862399881371005 20.40941381781579 H 0.0 **** 0.06
19385 H 25.237211542212748 29.220205859662343 22.00634892588704 H 0.0 **** 0.06
19386 C 134.4638982484012 10.368057483642076 6.999255516076083 C 0.0 **** -0.24
19387 H 134.71247900244157 9.318620902984662 7.157668073839506 H 0.0 **** 0.06
19388 H 135.29694188667327 10.867225846233453 6.503749380820839 H 0.0 **** 0.06
19389 H 134.27218469509992 10.84572483053762 7.959643376385333 H 0.0 **** 0.06
19390 H 133.5735308717026 10.439257591296553 6.374279071956941 H 0.0 **** 0.06
19391 C 62.45124714478591 26.187185072980185 17.2288703929662 C 0.0 **** -0.24
19392 H 63.13092833617647 26.997001659927264 16.96296504760076 H 0.0 **** 0.06
19393 H 62.16196208969957 26.284799244413108 18.27558989994452 H 0.0 **** 0.06
19394 H 62.95138713537084 25.23066147701519 17.07649037114902 H 0.0 **** 0.06
19395 H 61.56351621873169 26.237789657849476 16.59907756829847 H 0.0 **** 0.06
19396 C 114.96466065087256 25.257664460309286 79.54078019767013 C 0.0 **** -0.24
19397 H 114.68910116420875 26.285042315069973 79.78095684517757 H 0.0 **** 0.06
19398 H 114.9822590358877 25.130893929177574 78.4585031662836 H 0.0 **** 0.06
19399 H 114.23343266492077 24.5751856657304 79.97463779786051 H 0.0 **** 0.06
19400 H 115.9508756916201 25.041310919724765 79.94909381512167 H 0.0 **** 0.06
19401 C 88.84372374289336 66.25842286714779 6.34798098170582 C 0.0 **** -0.24
19402 H 89.49181868109481 66.33636026119605 7.21994640406729 H 0.0 **** 0.06
19403 H 88.57168178412749 67.25696585082038 6.006886986480982 H 0.0 **** 0.06
19404 H 87.94104291529332 65.70644244322068 6.613591764331762 H 0.0 **** 0.06
19405 H 89.36873090137738 65.73198779580459 5.5502224272391985 H 0.0 **** 0.06
19406 C 9.689557058483274 24.77588214404082 65.79785872347142 C 0.0 **** -0.24
19407 H 8.837997244079304 24.806970882941556 65.11893870902193 H 0.0 **** 0.06
19408 H 9.746672563226355 23.79202931671631 66.26360919038733 H 0.0 **** 0.06
19409 H 9.568078312700663 25.536096059364695 66.56844856537069 H 0.0 **** 0.06
19410 H 10.606190109934545 24.967719442507757 65.23944454374023 H 0.0 **** 0.06
19411 C 63.385798119420144 24.961831719546296 103.65865860191353 C 0.0 **** -0.24
19412 H 64.34428281962062 24.613892961145666 103.27381350255664 H 0.0 **** 0.06
19413 H 62.59560109578365 24.28716134591069 103.32911707700809 H 0.0 **** 0.06
19414 H 63.18601484289047 25.965762117320622 103.28162074415432 H 0.0 **** 0.06
19415 H 63.41745978485045 24.982651257524665 104.74718653698861 H 0.0 **** 0.06
19416 C 2.715280736824525 33.81689371787718 104.82766894525722 C 0.0 **** -0.24
19417 H 3.7230143520354773 33.98812004889183 104.44851780217779 H 0.0 **** 0.06
19418 H 2.1885238501860727 34.76937523395743 104.90058872453812 H 0.0 **** 0.06
19419 H 2.7724504574796356 33.35642965462765 105.8136519580314 H 0.0 **** 0.06
19420 H 2.179051890384585 33.155931519394954 104.14757438973906 H 0.0 **** 0.06
19421 C 93.07898673707987 101.58692638595409 136.39798764459465 C 0.0 **** -0.24
19422 H 93.69054086276753 101.35285620598519 137.26989693245545 H 0.0 **** 0.06
19423 H 92.4785609797058 100.71647300076323 136.132096853449 H 0.0 **** 0.06
19424 H 93.72587252157226 101.85194314480326 135.5610754579078 H 0.0 **** 0.06
19425 H 92.421414977346 102.42524646866738 136.6295106740346 H 0.0 **** 0.06
19426 C 58.86392495561586 117.00179074491976 86.36495832747619 C 0.0 **** -0.24
19427 H 59.46089657774843 116.39556328547653 85.68285770433121 H 0.0 **** 0.06
19428 H 59.11721116971489 118.0539410860099 86.2321357073644 H 0.0 **** 0.06
19429 H 59.07126439224464 116.7037514232336 87.39241487348488 H 0.0 **** 0.06
19430 H 57.805579492396646 116.85253394591885 86.15082669514065 H 0.0 **** 0.06
19431 C 66.53895223184368 63.98907497096049 12.273413584950447 C 0.0 **** -0.24
19432 H 65.70808682726934 64.45587748052142 12.80334113001021 H 0.0 **** 0.06
19433 H 66.64250793438103 64.44466027674234 11.288503782998816 H 0.0 **** 0.06
19434 H 66.34547288804373 62.92247217012452 12.162245965365969 H 0.0 **** 0.06
19435 H 67.45888087050622 64.13440998765594 12.839490507375217 H 0.0 **** 0.06
19436 C 134.86737015411575 37.09119853701526 47.75827573704437 C 0.0 **** -0.24
19437 H 134.76295442444663 38.06956561600819 47.289469523487796 H 0.0 **** 0.06
19438 H 135.73137228012834 37.097206080408 48.42330004451398 H 0.0 **** 0.06
19439 H 135.00728594466915 36.33290908123135 46.987898730192356 H 0.0 **** 0.06
19440 H 133.9690039939051 36.86548189316608 48.33167720226783 H 0.0 **** 0.06
19441 C 76.33531127609848 100.76475418377396 26.091865379791045 C 0.0 **** -0.24
19442 H 75.78425044061902 101.70520596911444 26.075389027547715 H 0.0 **** 0.06
19443 H 76.54900747013045 100.48720419082417 27.12433621590759 H 0.0 **** 0.06
19444 H 77.27146411960956 100.88249623914754 25.545440858633413 H 0.0 **** 0.06
19445 H 75.73652307403512 99.98411033600962 25.62229541707569 H 0.0 **** 0.06
19446 C 60.033754529311125 64.8383641059938 128.4864418001598 C 0.0 **** -0.24
19447 H 60.726012431764076 65.04660905301193 127.67062435590043 H 0.0 **** 0.06
19448 H 60.50867257165336 65.08065852554225 129.43731841880373 H 0.0 **** 0.06
19449 H 59.76421480613851 63.78282391125447 128.47316605704418 H 0.0 **** 0.06
19450 H 59.135833341323575 65.44389624033505 128.36337907196685 H 0.0 **** 0.06
19451 C 103.22666033440498 118.51064073402276 9.461332323363308 C 0.0 **** -0.24
19452 H 103.71590995311482 117.93476044390869 8.675147987711 H 0.0 **** 0.06
19453 H 102.43291609902309 117.91258443741233 9.909051899798754 H 0.0 **** 0.06
19454 H 102.80143459302374 119.41929147405274 9.034532619293259 H 0.0 **** 0.06
19455 H 103.95781049892368 118.77507464928252 10.224799526407537 H 0.0 **** 0.06
19456 C 129.12104901794325 95.64907768969084 82.6965827639796 C 0.0 **** -0.24
19457 H 128.60593240806 95.03620255544217 83.43616034759033 H 0.0 **** 0.06
19458 H 130.0831956092452 95.19568927328254 82.45602093941204 H 0.0 **** 0.06
19459 H 129.28087096257897 96.64940231033233 83.09965557011232 H 0.0 **** 0.06
19460 H 128.51465939105398 95.71322576021947 81.79323748343717 H 0.0 **** 0.06
19461 C 117.38722710930224 30.418882183962978 15.342852775591155 C 0.0 **** -0.24
19462 H 116.31448177935349 30.53163897662705 15.503166453616245 H 0.0 **** 0.06
19463 H 117.90025433797237 30.43179330076231 16.304432945316876 H 0.0 **** 0.06
19464 H 117.75003221748267 31.24004906081032 14.725201219443704 H 0.0 **** 0.06
19465 H 117.58086088541876 29.471124827702994 14.839792094406675 H 0.0 **** 0.06
19466 C 125.14259932967917 64.26304909242947 24.262101455451216 C 0.0 **** -0.24
19467 H 125.67548201006232 65.05688998308142 24.78458753801749 H 0.0 **** 0.06
19468 H 125.55997421454893 64.14251260813273 23.26205682817661 H 0.0 **** 0.06
19469 H 124.08696908204354 64.52244364519038 24.186449132938662 H 0.0 **** 0.06
19470 H 125.24868269632566 63.32926013879961 24.81475830775338 H 0.0 **** 0.06
19471 C 46.342552277424176 50.791981778474465 24.400125473431032 C 0.0 **** -0.24
19472 H 45.27700153145889 50.58819939055098 24.29355429362615 H 0.0 **** 0.06
19473 H 46.48595697561211 51.63006678150889 25.082490261419608 H 0.0 **** 0.06
19474 H 46.76295412931094 51.04089631356298 23.425437868475186 H 0.0 **** 0.06
19475 H 46.843190749613484 49.909136084559705 24.796865480090624 H 0.0 **** 0.06
19476 C 61.55984336840922 77.98107964842615 111.69639380373525 C 0.0 **** -0.24
19477 H 62.62883825437636 77.99987244053146 111.48247124302529 H 0.0 **** 0.06
19478 H 61.004483253046246 77.88193174980424 110.76333167642287 H 0.0 **** 0.06
19479 H 61.2736648130621 78.90702878775568 112.19488760766492 H 0.0 **** 0.06
19480 H 61.334369149456194 77.13445380218924 112.34497003091022 H 0.0 **** 0.06
19481 C 51.161978731470526 82.68452592972079 134.6751459814405 C 0.0 **** -0.24
19482 H 50.91154164734439 83.39833446302583 133.89018501390802 H 0.0 **** 0.06
19483 H 52.24247940546604 82.54234424432536 134.70578498295436 H 0.0 **** 0.06
19484 H 50.67521355492744 81.7315153404981 134.4686138320603 H 0.0 **** 0.06
19485 H 50.81788938126738 83.06708023582033 135.63593460157338 H 0.0 **** 0.06
19486 C 37.62355657631986 129.2602749819104 86.81519553202952 C 0.0 **** -0.24
19487 H 37.28157344944387 129.7617287315752 85.91028188892619 H 0.0 **** 0.06
19488 H 38.399980349805446 129.8606394757258 87.2908989355999 H 0.0 **** 0.06
19489 H 38.02685702341141 128.28080305721952 86.55861699001198 H 0.0 **** 0.06
19490 H 36.78650327302172 129.13945095984653 87.50247084941009 H 0.0 **** 0.06
19491 C 92.80191997586061 42.91769410457715 121.6129211780769 C 0.0 **** -0.24
19492 H 91.95783163791661 43.135060843712694 122.26772699580252 H 0.0 **** 0.06
19493 H 93.50518929145419 43.750002949777524 121.63848114828181 H 0.0 **** 0.06
19494 H 92.44228735791148 42.77555690744683 120.59305376919039 H 0.0 **** 0.06
19495 H 93.30043166907839 42.00904360864422 121.95241564150282 H 0.0 **** 0.06
19496 C 74.04817928801258 50.77217024460175 93.9466336680835 C 0.0 **** -0.24
19497 H 75.10495387180086 50.647505851928884 93.70855726977442 H 0.0 **** 0.06
19498 H 73.65204789609645 51.62849036247481 93.40036829169532 H 0.0 **** 0.06
19499 H 73.93544396627627 50.94092738385906 95.01806070027362 H 0.0 **** 0.06
19500 H 73.50315829760795 49.87326419095518 93.66017766126288 H 0.0 **** 0.06
19501 C 120.10540949752378 57.29737642587166 11.710257537900329 C 0.0 **** -0.24
19502 H 119.05061604835672 57.52828702807551 11.559940693048834 H 0.0 **** 0.06
19503 H 120.71613085062125 58.049029931891354 11.208818052040499 H 0.0 **** 0.06
19504 H 120.32347566112534 56.314279307553534 11.293983313745994 H 0.0 **** 0.06
19505 H 120.32902221813691 57.299339873791624 12.77718048192968 H 0.0 **** 0.06
19506 C 44.001141065656896 44.201817397379834 84.27885941607423 C 0.0 **** -0.24
19507 H 44.909388983456495 44.663836328124184 84.66505659691464 H 0.0 **** 0.06
19508 H 44.11159853140646 43.117081895087225 84.29151415164192 H 0.0 **** 0.06
19509 H 43.82949043858855 44.53652863511223 83.25591831209168 H 0.0 **** 0.06
19510 H 43.154059442292976 44.48887261209423 84.9009245523656 H 0.0 **** 0.06
19511 C 102.76886640669647 121.95226467475699 133.63369375479024 C 0.0 **** -0.24
19512 H 101.7652427853165 121.9802431015502 134.0586983694614 H 0.0 **** 0.06
19513 H 102.70268545875808 121.83972536506309 132.55183146295693 H 0.0 **** 0.06
19514 H 103.31682206253862 121.10885915365412 134.05428001895132 H 0.0 **** 0.06
19515 H 103.28907425903941 122.87935454258749 133.87305372816775 H 0.0 **** 0.06
19516 C 117.94882660861899 49.783981374210015 131.57187792301278 C 0.0 **** -0.24
19517 H 118.9083271916964 49.56144119240372 132.0377690256418 H 0.0 **** 0.06
19518 H 117.6956909936525 50.83077113011791 131.74325960498481 H 0.0 **** 0.06
19519 H 117.17756640810629 49.14789714536482 132.0069108486856 H 0.0 **** 0.06
19520 H 118.013124166995 49.59601533853342 130.50034881289116 H 0.0 **** 0.06
19521 C 51.85853854521832 57.56319852804117 60.45064389944497 C 0.0 **** -0.24
19522 H 51.08622604344549 57.13625906692191 61.08994596248243 H 0.0 **** 0.06
19523 H 51.640116189123574 57.32678652099692 59.40914828790983 H 0.0 **** 0.06
19524 H 52.82802532103494 57.1442892481562 60.723105895252445 H 0.0 **** 0.06
19525 H 51.881350013135346 58.64483539090587 60.58184746560073 H 0.0 **** 0.06
19526 C 72.10012601935767 53.42674902571585 97.83816537843813 C 0.0 **** -0.24
19527 H 71.20928529454625 52.80696337726498 97.94634428838117 H 0.0 **** 0.06
19528 H 71.80713482427359 54.47418643212208 97.76631064661092 H 0.0 **** 0.06
19529 H 72.63711936901649 53.13555195098199 96.93562759486792 H 0.0 **** 0.06
19530 H 72.74641972104558 53.28846081861545 98.70553723264891 H 0.0 **** 0.06
19531 C 27.70943993670638 5.694258740844077 76.2623562488211 C 0.0 **** -0.24
19532 H 27.571394252592725 5.253201485862405 75.27518708993921 H 0.0 **** 0.06
19533 H 28.25509416026349 4.99635418391378 76.89808008748794 H 0.0 **** 0.06
19534 H 26.73635603381824 5.905323596492536 76.70580681639267 H 0.0 **** 0.06
19535 H 28.276429268432757 6.621025045089084 76.16915527666902 H 0.0 **** 0.06
19536 C 59.24719722292508 105.2023944303114 116.9469092136084 C 0.0 **** -0.24
19537 H 60.00814357939659 105.96481550313123 116.77975413673258 H 0.0 **** 0.06
19538 H 59.28424175443469 104.87445433416686 117.98658326751249 H 0.0 **** 0.06
19539 H 59.43485616544167 104.35169894287569 116.29066578463056 H 0.0 **** 0.06
19540 H 58.26291363991612 105.61754647214893 116.73056535284309 H 0.0 **** 0.06
19541 C 10.179637753908025 61.92793674111874 46.52525577901923 C 0.0 **** -0.24
19542 H 10.412522495185204 61.76284746278667 45.47355892916812 H 0.0 **** 0.06
19543 H 11.077698500819878 62.25597665322637 47.04960853963905 H 0.0 **** 0.06
19544 H 9.818751261643726 60.99943625769173 46.967608410275204 H 0.0 **** 0.06
19545 H 9.409362787938264 62.69488165057895 46.610162044485946 H 0.0 **** 0.06
19546 C 97.15879248034366 30.136787571224346 77.39374731385297 C 0.0 **** -0.24
19547 H 96.54167401883217 29.65395587671418 78.15182016379467 H 0.0 **** 0.06
19548 H 96.8521807108225 29.794610396263977 76.4045784037497 H 0.0 **** 0.06
19549 H 98.20472820676082 29.878059463166835 77.5591295742737 H 0.0 **** 0.06
19550 H 97.03638729054961 31.217410453071125 77.45894828448439 H 0.0 **** 0.06
19551 C 56.03885401284967 115.57815432797005 53.596059816561194 C 0.0 **** -0.24
19552 H 55.98964955516604 116.44281084268414 54.257525666747426 H 0.0 **** 0.06
19553 H 56.54019792270867 115.85795281050687 52.66979196544304 H 0.0 **** 0.06
19554 H 55.028319387222496 115.23366657231409 53.37269443306516 H 0.0 **** 0.06
19555 H 56.59543140140113 114.77852227466673 54.08346333434412 H 0.0 **** 0.06
19556 C 102.35948254180167 91.58451910055395 115.11748722273867 C 0.0 **** -0.24
19557 H 102.76180043597115 90.5715335168658 115.12864885887717 H 0.0 **** 0.06
19558 H 101.63230128227138 91.69482421421438 115.92204689584165 H 0.0 **** 0.06
19559 H 101.8744432612495 91.77199022991867 114.15984924054862 H 0.0 **** 0.06
19560 H 103.17091838161792 92.29815217134652 115.2598100009478 H 0.0 **** 0.06
19561 C 106.37008815429827 114.85079716176702 118.04394368420381 C 0.0 **** -0.24
19562 H 105.99443327334352 113.90725254947694 117.6465998894507 H 0.0 **** 0.06
19563 H 106.91682210636482 115.38099193331809 117.26407154249776 H 0.0 **** 0.06
19564 H 107.03521941059144 114.65192661216219 118.88397639496719 H 0.0 **** 0.06
19565 H 105.5322837973011 115.46216352974557 118.3802725675535 H 0.0 **** 0.06
19566 C 66.24159611786564 99.09848825000769 6.47857844745635 C 0.0 **** -0.24
19567 H 65.56601128777618 98.24979883205415 6.586274685143586 H 0.0 **** 0.06
19568 H 65.72559963908287 99.90917466066774 5.963994881205654 H 0.0 **** 0.06
19569 H 67.11345243639818 98.796870650685 5.899829494397732 H 0.0 **** 0.06
19570 H 66.55877095625789 99.43728946156065 7.465123402587508 H 0.0 **** 0.06
19571 C 44.82055038825606 124.92088730115816 68.99212757181297 C 0.0 **** -0.24
19572 H 43.89768316099065 125.29128177152296 69.4389251743416 H 0.0 **** 0.06
19573 H 45.38217130108749 125.75784386472948 68.57457419433375 H 0.0 **** 0.06
19574 H 44.58082513812417 124.21217100063674 68.19893774049797 H 0.0 **** 0.06
19575 H 45.419790571917616 124.42469704995818 69.75464933234346 H 0.0 **** 0.06
19576 C 123.2056161856656 55.76043557804553 29.576118442922052 C 0.0 **** -0.24
19577 H 122.31749809546494 56.31881586684938 29.872964865548468 H 0.0 **** 0.06
19578 H 123.0670533936675 55.36876428796285 28.569012213230096 H 0.0 **** 0.06
19579 H 123.36408802078995 54.934728192878765 30.270215035614314 H 0.0 **** 0.06
19580 H 124.07173661344963 56.42189647838268 29.594172250759158 H 0.0 **** 0.06
19581 C 38.49704316397259 113.56772597020566 40.316882995196124 C 0.0 **** -0.24
19582 H 38.325498085731176 114.63339405724685 40.168323808617146 H 0.0 **** 0.06
19583 H 39.45424872262145 113.28812236408874 39.87620235371426 H 0.0 **** 0.06
19584 H 37.69771437223672 113.00064089670019 39.83859425587008 H 0.0 **** 0.06
19585 H 38.5101814572869 113.34667958863821 41.385080091196244 H 0.0 **** 0.06
19586 C 84.98905037858302 92.38927594292875 43.120506249914335 C 0.0 **** -0.24
19587 H 85.9144478827469 92.01883594879962 42.679936490761435 H 0.0 **** 0.06
19588 H 85.22199584300853 93.04224020958486 43.961506921681675 H 0.0 **** 0.06
19589 H 84.39071170052897 91.54731300874391 43.46815591594791 H 0.0 **** 0.06
19590 H 84.42845016035817 92.94821970603022 42.370328011298504 H 0.0 **** 0.06
19591 C 10.797782623056612 119.9509176624311 11.397842759124444 C 0.0 **** -0.24
19592 H 11.469160997417763 119.24632434482308 10.907280443544266 H 0.0 **** 0.06
19593 H 9.93570808468979 120.13859631293991 10.757194407975817 H 0.0 **** 0.06
19594 H 11.325221042738775 120.88698783383575 11.580666164293575 H 0.0 **** 0.06
19595 H 10.462446482373373 119.53189627732169 12.346300343934956 H 0.0 **** 0.06
19596 C 50.3421386316958 25.406778663697793 136.64756543058334 C 0.0 **** -0.24
19597 H 49.65526127283371 26.252147069293088 136.60142611384336 H 0.0 **** 0.06
19598 H 50.620070884021615 25.10900187449775 135.63694994001125 H 0.0 **** 0.06
19599 H 49.855955571037654 24.571338158485815 137.15278451588932 H 0.0 **** 0.06
19600 H 51.235927768085546 25.6953710053332 137.20073041811207 H 0.0 **** 0.06
19601 C 47.85178592744751 31.43014482209213 118.80825620740939 C 0.0 **** -0.24
19602 H 47.54096065785684 32.38606425425701 119.22996672298025 H 0.0 **** 0.06
19603 H 48.932363069450076 31.326548425420782 118.90359696088207 H 0.0 **** 0.06
19604 H 47.57401626108718 31.39130729504234 117.75449638381434 H 0.0 **** 0.06
19605 H 47.35868376297566 30.61916863017902 119.34429439306426 H 0.0 **** 0.06
19606 C 47.572477990697564 136.41679293083337 134.45072549444222 C 0.0 **** -0.24
19607 H 48.06199525858116 135.60807692880115 134.99287705074363 H 0.0 **** 0.06
19608 H 46.7851861182786 136.84614327953304 135.0707423250114 H 0.0 **** 0.06
19609 H 47.137947780601564 136.02474786844513 133.53043788198335 H 0.0 **** 0.06
19610 H 48.30457211733989 137.18686427754923 134.20680462706238 H 0.0 **** 0.06
19611 C 64.40692048386165 80.42141264620653 124.11379122075523 C 0.0 **** -0.24
19612 H 64.73065765165337 81.42560160089639 123.84059012420313 H 0.0 **** 0.06
19613 H 64.85411124663908 79.69777159021055 123.43184757753983 H 0.0 **** 0.06
19614 H 63.32055691999125 80.360493428687 124.04702948364574 H 0.0 **** 0.06
19615 H 64.7214404557108 80.202674250104 125.1338621627433 H 0.0 **** 0.06
19616 C 97.6304704857159 39.64709347854042 1.0709103879894428 C 0.0 **** -0.24
19617 H 96.633626073927 39.28332197103318 0.8220900445004986 H 0.0 **** 0.06
19618 H 98.34816338928276 38.83083438276038 0.9826942055163386 H 0.0 **** 0.06
19619 H 97.63481071284096 40.02560351081197 2.093229024546986 H 0.0 **** 0.06
19620 H 97.90606168416056 40.44911460760363 0.3860040657903028 H 0.0 **** 0.06
19621 C 101.13966683180959 121.86763684006257 11.30778911011853 C 0.0 **** -0.24
19622 H 100.96033252920654 121.15579534504866 12.112874140748364 H 0.0 **** 0.06
19623 H 100.3197072686879 122.5846902316735 11.266258207042892 H 0.0 **** 0.06
19624 H 101.20441007264462 121.33409861323958 10.358739900551356 H 0.0 **** 0.06
19625 H 102.07556031332375 122.39576975774298 11.492207406770305 H 0.0 **** 0.06
19626 C 124.97648739928235 115.28675786885995 86.20900593206878 C 0.0 **** -0.24
19627 H 125.00265575690202 114.44585190080952 85.51546396181102 H 0.0 **** 0.06
19628 H 123.95917547734098 115.6714785314847 86.2749717504303 H 0.0 **** 0.06
19629 H 125.64029143398221 116.07278159929788 85.8509236856677 H 0.0 **** 0.06
19630 H 125.30380629431465 114.95451058555153 87.19422019750105 H 0.0 **** 0.06
19631 C 80.21050055264465 1.6679406857086292 94.14670597740339 C 0.0 **** -0.24
19632 H 80.09088788922077 2.750688782530972 94.19724786624204 H 0.0 **** 0.06
19633 H 79.8591527433664 1.3079686099326864 93.17992478997807 H 0.0 **** 0.06
19634 H 79.62779671618497 1.2014842631747342 94.9425751999213 H 0.0 **** 0.06
19635 H 81.26326960351864 1.4124309319075223 94.2703230860095 H 0.0 **** 0.06
19636 C 26.6539998187516 80.68859554437546 67.5790698277998 C 0.0 **** -0.24
19637 H 26.62679814498881 81.66447184645074 68.06397763226283 H 0.0 **** 0.06
19638 H 25.663287148462047 80.23506055469863 67.62099261161148 H 0.0 **** 0.06
19639 H 27.370468794520264 80.04773480396202 68.09238722790167 H 0.0 **** 0.06
19640 H 26.954670266232398 80.80863424475069 66.53861943525021 H 0.0 **** 0.06
19641 C 50.28622149589063 69.96569349221146 58.18329263297497 C 0.0 **** -0.24
19642 H 50.64743384350072 68.97649072130426 57.90365798272714 H 0.0 **** 0.06
19643 H 49.20713385139726 70.01267346058522 58.04023406593274 H 0.0 **** 0.06
19644 H 50.768868664171976 70.71799505232177 57.559162717583234 H 0.0 **** 0.06
19645 H 50.52342479037202 70.15569598981455 59.22981195201305 H 0.0 **** 0.06
19646 C 136.80625156217695 30.19309075590195 29.71747687001678 C 0.0 **** -0.24
19647 H 136.74083349308017 29.693247861122387 28.75084631136903 H 0.0 **** 0.06
19648 H 137.3261789343884 31.14389223708156 29.599701073414792 H 0.0 **** 0.06
19649 H 137.35513478051 29.562052789468368 30.415905335552907 H 0.0 **** 0.06
19650 H 135.80162544165876 30.373019995752685 30.102248181801656 H 0.0 **** 0.06
19651 C 31.40350180516768 97.3035412754163 97.55469452141139 C 0.0 **** -0.24
19652 H 31.475050975727925 96.9071022096097 98.56676604764675 H 0.0 **** 0.06
19653 H 32.238358962847286 97.97978125591204 97.3697375125077 H 0.0 **** 0.06
19654 H 30.464906920814656 97.84642674136406 97.44262274803127 H 0.0 **** 0.06
19655 H 31.436056359740064 96.48216460694661 96.83926345818533 H 0.0 **** 0.06
19656 C 101.35696116976186 41.63243203990227 11.822881559243847 C 0.0 **** -0.24
19657 H 100.39390667281106 41.20452143060375 12.100888029284832 H 0.0 **** 0.06
19658 H 101.59052404000272 42.464226995072764 12.487392353526747 H 0.0 **** 0.06
19659 H 101.31190630592121 41.98879891712335 10.793878760740405 H 0.0 **** 0.06
19660 H 102.13197912931713 40.869783923250395 11.909548466861708 H 0.0 **** 0.06
19661 C 42.64001646121716 88.27258683941824 135.82000408423744 C 0.0 **** -0.24
19662 H 41.9893597714438 87.68246579884557 135.17420836056863 H 0.0 **** 0.06
19663 H 42.391237565903 89.32898623236478 135.71862140407208 H 0.0 **** 0.06
19664 H 43.67911949559098 88.11388976754242 135.5299347312132 H 0.0 **** 0.06
19665 H 42.499769074997346 87.9633415628192 136.8555503510999 H 0.0 **** 0.06
19666 C 78.89186213113499 89.62149596120597 78.05694168895968 C 0.0 **** -0.24
19667 H 79.26605830277 88.62986622387899 78.30847435557419 H 0.0 **** 0.06
19668 H 78.82070994737481 89.7182172604157 76.97350898434092 H 0.0 **** 0.06
19669 H 79.57475968876275 90.37715245410794 78.44592276660956 H 0.0 **** 0.06
19670 H 77.90521652957835 89.7611110286253 78.50047097192089 H 0.0 **** 0.06
19671 C 122.0277744817952 5.387270193427611 32.270696098556584 C 0.0 **** -0.24
19672 H 122.2176053444025 6.456381949307257 32.17011077366715 H 0.0 **** 0.06
19673 H 121.8334967563693 5.150084131852623 33.31736990900234 H 0.0 **** 0.06
19674 H 122.89832387440896 4.830172215516427 31.92732084020838 H 0.0 **** 0.06
19675 H 121.16034879379654 5.114808451952655 31.669893872360092 H 0.0 **** 0.06
19676 C 97.6085187694577 94.99541565001624 89.71619791797723 C 0.0 **** -0.24
19677 H 97.77385850590252 93.92952758480597 89.56103529581614 H 0.0 **** 0.06
19678 H 98.40732103761047 95.40029567650886 90.336033440224 H 0.0 **** 0.06
19679 H 96.65040723487232 95.14481198134673 90.2141247109405 H 0.0 **** 0.06
19680 H 97.60085635816796 95.50508943066535 88.75199148140716 H 0.0 **** 0.06
19681 C 126.75519102307707 133.62594168674016 12.383199775011235 C 0.0 **** -0.24
19682 H 127.31435761194176 133.35125671089227 13.277721971739197 H 0.0 **** 0.06
19683 H 125.84973299798162 133.0205472867348 12.321843922501841 H 0.0 **** 0.06
19684 H 127.37087126732197 133.4508533332837 11.501055819857584 H 0.0 **** 0.06
19685 H 126.48414518173354 134.68092841248938 12.434864753007673 H 0.0 **** 0.06
19686 C 115.62442629257714 0.5734664863251737 76.89389002125279 C 0.0 **** -0.24
19687 H 116.62230411955414 0.783025894902579 76.50690058940603 H 0.0 **** 0.06
19688 H 115.52290455286612 -0.4959199030811874 77.07623887371767 H 0.0 **** 0.06
19689 H 114.87884934143159 0.8910210792644762 76.16462246175087 H 0.0 **** 0.06
19690 H 115.47553152319597 1.1181038440339535 77.82687266393879 H 0.0 **** 0.06
19691 C 98.80380914277538 28.852387933996567 45.00022539838861 C 0.0 **** -0.24
19692 H 98.0839033890555 28.217916256808934 44.48356744353842 H 0.0 **** 0.06
19693 H 98.95832174671975 29.7680670447632 44.428594635047546 H 0.0 **** 0.06
19694 H 99.75037928402025 28.321207722909264 45.09954613495756 H 0.0 **** 0.06
19695 H 98.4221845896624 29.10255726998409 45.99085506360859 H 0.0 **** 0.06
19696 C 14.778083617034923 42.59218655067845 31.08889791120029 C 0.0 **** -0.24
19697 H 14.277351447304213 41.63278965272021 30.959491806909085 H 0.0 **** 0.06
19698 H 15.783926917677604 42.53583359467426 30.67153031948223 H 0.0 **** 0.06
19699 H 14.837917604225112 42.831760056103434 32.149841086201775 H 0.0 **** 0.06
19700 H 14.213682027909059 43.36897336794918 30.572419280360208 H 0.0 **** 0.06
19701 C 14.653831893229437 53.21849325521555 91.43082459658422 C 0.0 **** -0.24
19702 H 14.81280556839505 52.37517955131739 92.1022934291125 H 0.0 **** 0.06
19703 H 15.592393690195493 53.46761304359228 90.93360005679932 H 0.0 **** 0.06
19704 H 14.306673953908358 54.078514334905776 92.00392074234753 H 0.0 **** 0.06
19705 H 13.905533329799539 52.95316548285837 90.68413892969062 H 0.0 **** 0.06
19706 C 123.94440825656233 65.03329888138768 79.42187774242309 C 0.0 **** -0.24
19707 H 124.75833006270477 65.74317019027461 79.57172804901542 H 0.0 **** 0.06
19708 H 123.57678451716589 65.11300354121443 78.39847359439045 H 0.0 **** 0.06
19709 H 123.13547883274902 65.25730164183051 80.11777791181306 H 0.0 **** 0.06
19710 H 124.30795877341791 64.02184085962818 79.60034260094837 H 0.0 **** 0.06
19711 C 8.449764054286788 63.19505338157229 13.224234889271031 C 0.0 **** -0.24
19712 H 8.896061192653406 63.776768829498835 12.417665571130613 H 0.0 **** 0.06
19713 H 8.115465928692856 62.23321685666727 12.834429350196444 H 0.0 **** 0.06
19714 H 7.598535657991931 63.737356744079094 13.635137937930665 H 0.0 **** 0.06
19715 H 9.189668454441403 63.03278968302965 14.007576449906594 H 0.0 **** 0.06
19716 C 25.593282021352763 20.009103452237554 112.00124773904815 C 0.0 **** -0.24
19717 H 25.34811793376845 18.960818740748067 111.82550110706043 H 0.0 **** 0.06
19718 H 26.62479840899057 20.196077050209986 111.7022094609695 H 0.0 **** 0.06
19719 H 25.47453398378954 20.236704628774547 113.06113297977711 H 0.0 **** 0.06
19720 H 24.923952636385053 20.640797482591573 111.41754758338587 H 0.0 **** 0.06
19721 C 33.871520814921645 119.69940568720504 86.06932273341278 C 0.0 **** -0.24
19722 H 34.17592853546828 120.59344270363921 86.61384346925036 H 0.0 **** 0.06
19723 H 32.7910886676664 119.57288899214926 86.15306082008868 H 0.0 **** 0.06
19724 H 34.37281285228573 118.82840184486669 86.49130692454656 H 0.0 **** 0.06
19725 H 34.14539535021503 119.80265194967808 85.01953561578858 H 0.0 **** 0.06
19726 C 55.23927497627628 119.7018605952807 92.44629051824774 C 0.0 **** -0.24
19727 H 54.16157410314737 119.75903662192735 92.5994139792889 H 0.0 **** 0.06
19728 H 55.62373378455466 120.68984009997372 92.19201506431625 H 0.0 **** 0.06
19729 H 55.454011089779286 119.00846118560844 91.63242948782784 H 0.0 **** 0.06
19730 H 55.71855805377676 119.34965279925026 93.35982293213902 H 0.0 **** 0.06
19731 C 49.03315463526876 43.562944620329596 59.41246392571989 C 0.0 **** -0.24
19732 H 49.146451290023705 44.25711545515795 60.24449501297373 H 0.0 **** 0.06
19733 H 49.39629976776715 42.578576817186 59.70774125294513 H 0.0 **** 0.06
19734 H 49.609387651002066 43.921821781014145 58.55884116234127 H 0.0 **** 0.06
19735 H 47.98041834339135 43.49458700912092 59.137077598415615 H 0.0 **** 0.06
19736 C 66.27434059342673 43.27075842893746 102.91540926549675 C 0.0 **** -0.24
19737 H 66.11482660424008 44.148516926889144 102.28957834291789 H 0.0 **** 0.06
19738 H 65.66207281115771 43.34997749047053 103.8143690083813 H 0.0 **** 0.06
19739 H 67.32579637982599 43.210943789646294 103.19591414412706 H 0.0 **** 0.06
19740 H 65.99385418767014 42.374424007706615 102.36306154854945 H 0.0 **** 0.06
19741 C 114.21714518931753 117.87681617825777 30.132174972217967 C 0.0 **** -0.24
19742 H 114.99517830798393 118.1454230195456 29.418722227703654 H 0.0 **** 0.06
19743 H 113.49112544088655 117.22344264864716 29.648904455806814 H 0.0 **** 0.06
19744 H 113.71689099217386 118.78089996450194 30.48090174189946 H 0.0 **** 0.06
19745 H 114.66501283955961 117.35990857512871 30.98040673373265 H 0.0 **** 0.06
19746 C 111.66190227838038 60.152376479043085 68.87750234047229 C 0.0 **** -0.24
19747 H 111.37065530003184 59.114773632100196 68.71624614325833 H 0.0 **** 0.06
19748 H 112.74508028473724 60.24301188605955 68.79831474345804 H 0.0 **** 0.06
19749 H 111.342138027889 60.46907869072646 69.87062752371071 H 0.0 **** 0.06
19750 H 111.18767567146782 60.78328028132836 68.1254121855838 H 0.0 **** 0.06
19751 C 136.34291652129946 98.1075323724239 39.176351084511595 C 0.0 **** -0.24
19752 H 135.93598081013238 97.31130391404506 38.553088998682675 H 0.0 **** 0.06
19753 H 136.22708017673102 99.06294040608267 38.66538977937762 H 0.0 **** 0.06
19754 H 137.4004949126395 97.9193629423396 39.36132749734764 H 0.0 **** 0.06
19755 H 135.8066881198527 98.13454877705406 40.125309096845804 H 0.0 **** 0.06
19756 C 36.96414013960738 73.01399317065068 104.82764424714105 C 0.0 **** -0.24
19757 H 36.57995047685367 72.97894796130879 103.8085862696866 H 0.0 **** 0.06
19758 H 36.69308531863797 72.09574037761024 105.34945474243943 H 0.0 **** 0.06
19759 H 36.53357172027698 73.86961172035944 105.34851738617749 H 0.0 **** 0.06
19760 H 38.048704064290234 73.11220109891946 104.80361751761353 H 0.0 **** 0.06
19761 C 66.07158041349017 108.32049218481743 78.71341748711609 C 0.0 **** -0.24
19762 H 65.17015871104407 107.88647846066424 78.2815112076538 H 0.0 **** 0.06
19763 H 65.9710761968282 108.361244129733 79.7984425037721 H 0.0 **** 0.06
19764 H 66.21281392733425 109.32820283987596 78.32318502579835 H 0.0 **** 0.06
19765 H 66.93247483724373 107.70492467428637 78.45137260152273 H 0.0 **** 0.06
19766 C 124.06878561353318 117.43648837504668 50.400702772964394 C 0.0 **** -0.24
19767 H 125.0414264435617 117.73434166171106 50.79247605342954 H 0.0 **** 0.06
19768 H 124.04966125054762 116.35524772453024 50.25728009346369 H 0.0 **** 0.06
19769 H 123.89420777396356 117.93291089904585 49.446013122507054 H 0.0 **** 0.06
19770 H 123.28927035990844 117.72289253290708 51.1076361155927 H 0.0 **** 0.06
19771 C 51.43927951349906 104.46765809235654 8.55451504786987 C 0.0 **** -0.24
19772 H 52.102464360797626 104.38635483784194 7.692820937506781 H 0.0 **** 0.06
19773 H 52.002558768106894 104.83513428408881 9.41255339930018 H 0.0 **** 0.06
19774 H 51.02345886326367 103.48667470759568 8.78529820529775 H 0.0 **** 0.06
19775 H 50.6301162580221 105.16125409907303 8.324870783035465 H 0.0 **** 0.06
19776 C 62.2092986383289 88.79412063616317 82.98238084080637 C 0.0 **** -0.24
19777 H 61.69083149831948 88.35222675214364 82.13131051727697 H 0.0 **** 0.06
19778 H 62.46324705004349 88.012078187343 83.69872847061049 H 0.0 **** 0.06
19779 H 61.561772466584046 89.52881740828926 83.46079652278746 H 0.0 **** 0.06
19780 H 63.1201550478321 89.28297539772534 82.63935080997777 H 0.0 **** 0.06
19781 C 9.69145632915681 47.433592899866426 64.24481068829232 C 0.0 **** -0.24
19782 H 9.952448035887482 46.38166635007724 64.12638792042353 H 0.0 **** 0.06
19783 H 8.955995763855235 47.537266379943674 65.0423121664823 H 0.0 **** 0.06
19784 H 9.271213342849109 47.80904414005613 63.31144458107599 H 0.0 **** 0.06
19785 H 10.584581044893874 48.004085992023136 64.49661788323644 H 0.0 **** 0.06
19786 C 83.19307293331455 32.17921395428522 103.37886169246855 C 0.0 **** -0.24
19787 H 83.21423867735318 33.182035456240655 103.80669829278872 H 0.0 **** 0.06
19788 H 82.50999098382319 32.16085150830509 102.52996245937939 H 0.0 **** 0.06
19789 H 82.85570735991115 31.470055499829122 104.13449043687314 H 0.0 **** 0.06
19790 H 84.19507975804693 31.906300158535778 103.04650422689468 H 0.0 **** 0.06
19791 C 34.62596346811409 125.17139858953755 69.83861508848807 C 0.0 **** -0.24
19792 H 33.68708730997617 125.10106366114502 69.28932407102799 H 0.0 **** 0.06
19793 H 34.45291958322067 124.92725764305766 70.88689324311308 H 0.0 **** 0.06
19794 H 35.01599763782817 126.18598547950955 69.76079589881563 H 0.0 **** 0.06
19795 H 35.34623943989191 124.4715993281448 69.41562744191661 H 0.0 **** 0.06
19796 C 98.32134073679077 119.18631642938692 77.89070386493668 C 0.0 **** -0.24
19797 H 98.36413214981837 119.7095040175985 76.93574330202264 H 0.0 **** 0.06
19798 H 97.39206271709219 118.6203270816068 77.95311754933283 H 0.0 **** 0.06
19799 H 98.3600204642238 119.91164501400051 78.7035085103911 H 0.0 **** 0.06
19800 H 99.1683434372585 118.50513475133694 77.97118367179722 H 0.0 **** 0.06
19801 C 57.07908193938195 47.87593300345564 105.3265676116853 C 0.0 **** -0.24
19802 H 56.87632125015688 48.56031453460605 104.50150932144126 H 0.0 **** 0.06
19803 H 56.22840168980501 47.86681805660969 106.00812766044294 H 0.0 **** 0.06
19804 H 57.969726753145665 48.20588050529581 105.86027115329213 H 0.0 **** 0.06
19805 H 57.24199010484419 46.872510825910496 104.93307945315121 H 0.0 **** 0.06
19806 C 104.08658133838662 51.8339987082649 31.590381820026117 C 0.0 **** -0.24
19807 H 103.46403289759002 52.09776832110322 32.44549532359965 H 0.0 **** 0.06
19808 H 104.03351822382623 52.62851470107054 30.845577995240014 H 0.0 **** 0.06
19809 H 103.7281682993119 50.902141584877796 31.154166952727145 H 0.0 **** 0.06
19810 H 105.11882606317528 51.710531345507945 31.91654076337815 H 0.0 **** 0.06
19811 C 98.96531557356654 102.93460052822087 4.472773196044955 C 0.0 **** -0.24
19812 H 99.89432979061937 103.42535606174488 4.76379841132038 H 0.0 **** 0.06
19813 H 99.12335470486724 101.85690743877859 4.424801042749067 H 0.0 **** 0.06
19814 H 98.65186119638149 103.30004930638694 3.49574170895238 H 0.0 **** 0.06
19815 H 98.19253544309528 103.15623606482177 5.208570452414449 H 0.0 **** 0.06
19816 C 46.41078702197987 17.58449448376774 14.04480326296185 C 0.0 **** -0.24
19817 H 46.71241441666071 17.035841855655747 14.936664932999072 H 0.0 **** 0.06
19818 H 47.21487829004799 18.256622332812185 13.742880238554882 H 0.0 **** 0.06
19819 H 45.514657368348864 18.165174418492427 14.262737890822237 H 0.0 **** 0.06
19820 H 46.202051480991585 16.881789007474367 13.238710523091719 H 0.0 **** 0.06
19821 C 15.220206117030301 55.621474575662035 110.81571953097063 C 0.0 **** -0.24
19822 H 14.731429493310543 55.06025411796833 110.02009272412582 H 0.0 **** 0.06
19823 H 15.524167381273799 56.59819117199987 110.4378990059788 H 0.0 **** 0.06
19824 H 16.09959827321788 55.07500980294276 111.15883295656889 H 0.0 **** 0.06
19825 H 14.5268526139661 55.75309264780168 111.64633957624326 H 0.0 **** 0.06
19826 C 76.61455689470529 39.76851211001406 27.88110783266204 C 0.0 **** -0.24
19827 H 77.23952173642584 39.08589248203975 28.457464043159064 H 0.0 **** 0.06
19828 H 77.15853582302316 40.09987665182598 26.9965296664885 H 0.0 **** 0.06
19829 H 76.3576852142079 40.63134643860096 28.494896787707617 H 0.0 **** 0.06
19830 H 75.70213271774857 39.255566264240684 27.575633150312683 H 0.0 **** 0.06
19831 C 96.15285079384404 78.58266498930071 46.21576982984939 C 0.0 **** -0.24
19832 H 96.19660740502957 77.92791831293444 45.34538933044238 H 0.0 **** 0.06
19833 H 97.03289951897588 78.41954306881885 46.836979529568154 H 0.0 **** 0.06
19834 H 95.25375691891611 78.36100440636291 46.79157265712607 H 0.0 **** 0.06
19835 H 96.12635183122734 79.62099971365937 45.88704530788512 H 0.0 **** 0.06
19836 C 66.34243872218855 0.7280844207624568 22.646733832985433 C 0.0 **** -0.24
19837 H 67.09677531887635 0.22160533132995397 22.044604035653037 H 0.0 **** 0.06
19838 H 65.72664953817036 1.3569817531495119 22.003076369925793 H 0.0 **** 0.06
19839 H 66.8334208421499 1.3475394685445394 23.397568757474914 H 0.0 **** 0.06
19840 H 65.71437081518056 -0.012585945469595572 23.141040561763248 H 0.0 **** 0.06
19841 C 84.13151371164224 13.261661740901701 101.06958190150982 C 0.0 **** -0.24
19842 H 83.25853544975075 12.704358139500044 101.410745728535 H 0.0 **** 0.06
19843 H 84.39894318038489 12.93753324564284 100.06374778601656 H 0.0 **** 0.06
19844 H 84.96585063215895 13.07837314416497 101.74573291952822 H 0.0 **** 0.06
19845 H 83.8994284659002 14.326727939793727 101.05820190025702 H 0.0 **** 0.06
19846 C 69.07417335468355 79.91179723999522 111.34906038734519 C 0.0 **** -0.24
19847 H 68.02174230497282 79.6420025282406 111.26312002255875 H 0.0 **** 0.06
19848 H 69.57209364806765 79.73753131833519 110.39551028049263 H 0.0 **** 0.06
19849 H 69.54297425665473 79.30226169335941 112.12121397761919 H 0.0 **** 0.06
19850 H 69.15772355283168 80.96529232062278 111.61696814146771 H 0.0 **** 0.06
19851 C 100.7524117464293 108.6585887384523 61.71270932182716 C 0.0 **** -0.24
19852 H 100.59347463907297 107.61353161515552 61.976706708829624 H 0.0 **** 0.06
19853 H 100.53630178897097 108.80278744524296 60.65365203948298 H 0.0 **** 0.06
19854 H 101.78928705946795 108.93013126132942 61.91256761450458 H 0.0 **** 0.06
19855 H 100.09058349820536 109.28790463208117 62.30791092449118 H 0.0 **** 0.06
19856 C 73.46587922664317 16.884345243920762 45.23982151289886 C 0.0 **** -0.24
19857 H 74.50278786925934 16.81108156804298 45.56800129489244 H 0.0 **** 0.06
19858 H 73.04868073387523 15.883704110996149 45.12558134562801 H 0.0 **** 0.06
19859 H 73.4241754230736 17.407805098717837 44.2846295757349 H 0.0 **** 0.06
19860 H 72.88833321758052 17.43685970909189 45.98178478183297 H 0.0 **** 0.06
19861 C 26.4712876952169 61.21807536396156 126.35347492443188 C 0.0 **** -0.24
19862 H 27.2742177623972 61.25345844645085 127.09001577342391 H 0.0 **** 0.06
19863 H 25.53114321751957 60.98387563195291 126.85352686124617 H 0.0 **** 0.06
19864 H 26.691867791255802 60.449357698573465 125.61380231515665 H 0.0 **** 0.06
19865 H 26.389093667195425 62.18636493327841 125.85921129200895 H 0.0 **** 0.06
19866 C 104.01053192635386 19.841811689044363 52.15818576092022 C 0.0 **** -0.24
19867 H 103.30844055153487 19.688010258593906 51.338704897931905 H 0.0 **** 0.06
19868 H 104.77233933344871 20.55953309258672 51.853083246109236 H 0.0 **** 0.06
19869 H 104.48457155408728 18.89314368864339 52.412188849812566 H 0.0 **** 0.06
19870 H 103.47561871623672 20.225206307588408 53.027084193548376 H 0.0 **** 0.06
19871 C 24.138102226662653 118.82174468074805 37.337302343397255 C 0.0 **** -0.24
19872 H 23.898339957697857 119.17644179071914 38.33903484979686 H 0.0 **** 0.06
19873 H 25.199715148799953 118.97811145372987 37.14074041751542 H 0.0 **** 0.06
19874 H 23.547327546780195 119.37355129714803 36.60517471581352 H 0.0 **** 0.06
19875 H 23.908236923202026 117.75849588961353 37.263633877405084 H 0.0 **** 0.06
19876 C 37.805821922771564 65.6223820216723 101.65261796823705 C 0.0 **** -0.24
19877 H 38.78885827827733 65.73744032090268 102.11025343050648 H 0.0 **** 0.06
19878 H 37.4949459746453 64.57985546975401 101.71734490536731 H 0.0 **** 0.06
19879 H 37.855196551119256 65.92321979699902 100.60644407768102 H 0.0 **** 0.06
19880 H 37.085933794335595 66.25089392010464 102.17808727972267 H 0.0 **** 0.06
19881 C 84.14227820698062 37.06498116602319 130.1705159889715 C 0.0 **** -0.24
19882 H 84.20311520617247 37.089090871342904 129.0825262652481 H 0.0 **** 0.06
19883 H 84.93214691086375 37.6862558029233 130.59355068244324 H 0.0 **** 0.06
19884 H 84.26117608280443 36.0388027037433 130.51799708509836 H 0.0 **** 0.06
19885 H 83.17126856147993 37.44592714508917 130.4879927947614 H 0.0 **** 0.06
19886 C 0.2000903500475033 107.92127322358783 136.43969069290225 C 0.0 **** -0.24
19887 H 0.12998096095151368 108.46487316042145 137.3821093184133 H 0.0 **** 0.06
19888 H 1.1727605282652576 107.43285597886454 136.37431165282803 H 0.0 **** 0.06
19889 H 0.0869963045506097 108.61909337658672 135.60983417107695 H 0.0 **** 0.06
19890 H -0.5885666205194298 107.17017178525838 136.39382261899826 H 0.0 **** 0.06
19891 C 54.518786593822526 61.72001314283085 125.4362844390447 C 0.0 **** -0.24
19892 H 55.59643045689717 61.571200271584814 125.49677782789553 H 0.0 **** 0.06
19893 H 54.09589009457129 61.020727861790846 124.71446746525555 H 0.0 **** 0.06
19894 H 54.31009825338731 62.74173453248676 125.118640530849 H 0.0 **** 0.06
19895 H 54.07249323309405 61.545427467087734 126.4153892083051 H 0.0 **** 0.06
19896 C 133.46749753365134 38.10884064406962 104.83147883828028 C 0.0 **** -0.24
19897 H 134.14384967137698 38.94492624068124 105.0115031692689 H 0.0 **** 0.06
19898 H 132.5082239112919 38.30976345036673 105.30885209038462 H 0.0 **** 0.06
19899 H 133.89743719858734 37.197414480136416 105.24689103664895 H 0.0 **** 0.06
19900 H 133.32169219287766 37.985107245855296 103.75833583039491 H 0.0 **** 0.06
19901 C 110.83662130965212 15.012433234751711 91.62628751844932 C 0.0 **** -0.24
19902 H 110.12643460307174 14.234018571817728 91.90327391852213 H 0.0 **** 0.06
19903 H 111.73693164854618 14.55396598878363 91.21670949344809 H 0.0 **** 0.06
19904 H 111.09555527429254 15.599304419711416 92.50736042117774 H 0.0 **** 0.06
19905 H 110.38693473399923 15.663476351595193 90.87567578793357 H 0.0 **** 0.06
19906 C 46.90708993973868 94.2864082628828 66.7245344141977 C 0.0 **** -0.24
19907 H 46.440867459782396 94.93020111893571 67.47078132240807 H 0.0 **** 0.06
19908 H 46.79312277541658 94.73427885870896 65.73717050283591 H 0.0 **** 0.06
19909 H 46.4271659302899 93.3080966718092 66.73826084522494 H 0.0 **** 0.06
19910 H 47.967563331401834 94.1750391600179 66.95289425991507 H 0.0 **** 0.06
19911 C 117.73365482504468 47.883414319251585 123.2986071533703 C 0.0 **** -0.24
19912 H 117.20017578096201 48.69291682067134 122.80002226680014 H 0.0 **** 0.06
19913 H 117.63342936531637 46.96901863347233 122.71314794290572 H 0.0 **** 0.06
19914 H 117.31155698497224 47.72844451431331 124.29114269330934 H 0.0 **** 0.06
19915 H 118.78770602131188 48.14429316011177 123.38873665074739 H 0.0 **** 0.06
19916 C 87.06225290451653 81.61926425689816 75.85827148459603 C 0.0 **** -0.24
19917 H 86.16369120902914 82.19933749531485 75.64824297452242 H 0.0 **** 0.06
19918 H 87.92298538561502 82.1057232642694 75.40073325268787 H 0.0 **** 0.06
19919 H 86.9499061880664 80.61539661952038 75.44765111917411 H 0.0 **** 0.06
19920 H 87.20935562091049 81.55539329381546 76.93677572161016 H 0.0 **** 0.06
19921 C 40.488258796284555 89.68227429913573 83.40917088510268 C 0.0 **** -0.24
19922 H 40.72614132650267 90.29141897518018 82.53785253406677 H 0.0 **** 0.06
19923 H 39.81363751257288 88.87745605669988 83.11631118196848 H 0.0 **** 0.06
19924 H 40.00768429565289 90.3027595474742 84.16524048789742 H 0.0 **** 0.06
19925 H 41.40557205040969 89.25746261718864 83.8172793364779 H 0.0 **** 0.06
19926 C 124.06106816460789 61.058700376953425 101.2693740289962 C 0.0 **** -0.24
19927 H 123.5057299275075 61.66292283801211 101.98643727693474 H 0.0 **** 0.06
19928 H 124.63381995045063 60.29988294192766 101.80106518158215 H 0.0 **** 0.06
19929 H 124.74030465894802 61.69809452727431 100.70456519600398 H 0.0 **** 0.06
19930 H 123.36380634118578 60.57619567794916 100.5848273154021 H 0.0 **** 0.06
19931 C 31.661200316611072 11.442218724988276 46.48057069830537 C 0.0 **** -0.24
19932 H 31.566869808586205 10.780533111870348 47.3411512758621 H 0.0 **** 0.06
19933 H 32.50367312278015 11.122654987448406 45.86678598521064 H 0.0 **** 0.06
19934 H 31.82807983038964 12.46363426768815 46.82409744743504 H 0.0 **** 0.06
19935 H 30.746165335450698 11.402866732310645 45.88966760877739 H 0.0 **** 0.06
19936 C 4.766376251267797 83.74981838554646 44.43028334454793 C 0.0 **** -0.24
19937 H 3.8632729651108058 84.34827066544483 44.5469038820946 H 0.0 **** 0.06
19938 H 4.491727303723621 82.72220685763125 44.187133847147805 H 0.0 **** 0.06
19939 H 5.334341971470611 83.7642076160862 45.3610550674215 H 0.0 **** 0.06
19940 H 5.375373053119379 84.163047061751 43.626068179309584 H 0.0 **** 0.06
19941 C 62.211600719769365 110.61848672411384 67.77048369543132 C 0.0 **** -0.24
19942 H 61.858187583649226 111.07688339619702 66.8467972151941 H 0.0 **** 0.06
19943 H 61.35636305231424 110.30193716881269 68.36901611331268 H 0.0 **** 0.06
19944 H 62.80097761749039 111.34276869091647 68.33266388177384 H 0.0 **** 0.06
19945 H 62.829974429565084 109.75293090517638 67.53252961272062 H 0.0 **** 0.06
19946 C 51.245930110591075 33.661976243416014 97.05471468026323 C 0.0 **** -0.24
19947 H 52.00610353970018 34.443047361365686 97.05528082446978 H 0.0 **** 0.06
19948 H 50.40542057368003 33.974368274177735 97.67529428718696 H 0.0 **** 0.06
19949 H 51.670895098221806 32.7411383690643 97.452891001766 H 0.0 **** 0.06
19950 H 50.90081469224725 33.49222311026749 96.03467531950466 H 0.0 **** 0.06
19951 C 89.11438544893656 58.77259011545357 59.12578900485448 C 0.0 **** -0.24
19952 H 89.76010748148451 59.233105598003874 58.37813092442593 H 0.0 **** 0.06
19953 H 88.11679952219254 58.635312863540946 58.70867830952375 H 0.0 **** 0.06
19954 H 89.05683939673906 59.4173138057194 60.00256255534683 H 0.0 **** 0.06
19955 H 89.52463057035305 57.80468647131522 59.41323729973652 H 0.0 **** 0.06
19956 C 59.6165646220154 2.647255587790653 37.53177907334447 C 0.0 **** -0.24
19957 H 59.286358489250574 2.3416165552058636 38.52528539871294 H 0.0 **** 0.06
19958 H 60.06632201299897 3.6390441335607555 37.5881517440763 H 0.0 **** 0.06
19959 H 58.76055744273185 2.6737283358170956 36.8565724216906 H 0.0 **** 0.06
19960 H 60.35132303273747 1.9348656791015308 37.15854363622779 H 0.0 **** 0.06
19961 C 33.1461675750744 52.476422517606025 90.93533494041861 C 0.0 **** -0.24
19962 H 32.156683813044026 52.80908717265879 90.62244334160637 H 0.0 **** 0.06
19963 H 33.119411631753394 52.19599616727203 91.98780165922369 H 0.0 **** 0.06
19964 H 33.86256859516908 53.28482465433942 90.79195925057081 H 0.0 **** 0.06
19965 H 33.444844742234295 51.61557220109809 90.33698909320056 H 0.0 **** 0.06
19966 C 99.99238772241803 136.84039855298073 133.60282071123012 C 0.0 **** -0.24
19967 H 99.34839888780448 137.03586757170638 134.4614285377479 H 0.0 **** 0.06
19968 H 101.02683573724161 136.76011015411623 133.93631002571314 H 0.0 **** 0.06
19969 H 99.90176850562186 137.65803444188492 132.887502748858 H 0.0 **** 0.06
19970 H 99.68939089094033 135.90728047931793 133.12802745593592 H 0.0 **** 0.06
19971 C 114.43671632777512 30.572035033565072 123.44472105391964 C 0.0 **** -0.24
19972 H 113.92629287695274 31.443489281596015 123.0348327151103 H 0.0 **** 0.06
19973 H 115.51439718804468 30.726126101592513 123.39550781416878 H 0.0 **** 0.06
19974 H 114.16807549396313 29.688026146329094 122.86569904329286 H 0.0 **** 0.06
19975 H 114.13682764017938 30.431115406195943 124.48280749717239 H 0.0 **** 0.06
19976 C 105.95840676899297 69.6257551676004 82.62306945668453 C 0.0 **** -0.24
19977 H 105.64554207688843 68.71503333109365 83.13305126941235 H 0.0 **** 0.06
19978 H 106.2612767694655 70.36917062664139 83.36121871911016 H 0.0 **** 0.06
19979 H 105.12859089604399 70.01602921156223 82.03415364589164 H 0.0 **** 0.06
19980 H 106.79783319392084 69.40372758168596 81.96483845749147 H 0.0 **** 0.06
19981 C 29.803566678156187 121.90191583401979 103.01862810761907 C 0.0 **** -0.24
19982 H 30.30270335655314 121.51802425804328 102.12881132623156 H 0.0 **** 0.06
19983 H 28.978881785542626 122.54923653867876 102.72064188840372 H 0.0 **** 0.06
19984 H 30.51517009016493 122.47112436005088 103.61749899727164 H 0.0 **** 0.06
19985 H 29.41878227791898 121.06890586550533 103.60706368186271 H 0.0 **** 0.06
19986 C 118.49766893936749 50.797927891250964 20.159908865236105 C 0.0 **** -0.24
19987 H 117.80890575020408 50.812420853482024 19.315446747984993 H 0.0 **** 0.06
19988 H 118.46442559704059 51.76019800143587 20.67158279761702 H 0.0 **** 0.06
19989 H 119.50896594766868 50.6108280100741 19.80042033361383 H 0.0 **** 0.06
19990 H 118.20597633505997 50.00778592970124 20.852214574118648 H 0.0 **** 0.06
19991 C 29.80204526185969 31.31444069819804 92.16612354322231 C 0.0 **** -0.24
19992 H 29.498259622340242 30.268166848201076 92.12836918351547 H 0.0 **** 0.06
19993 H 30.33140198018316 31.571063933823666 91.24779620417308 H 0.0 **** 0.06
19994 H 30.45921938276672 31.471786514835458 93.02063420517874 H 0.0 **** 0.06
19995 H 28.918635567235 31.945791711474953 92.26458825558136 H 0.0 **** 0.06
19996 C 78.96169949481752 67.37415822919739 115.61483966488109 C 0.0 **** -0.24
19997 H 79.43968215926661 68.31002966963214 115.32566104514581 H 0.0 **** 0.06
19998 H 79.7265774648026 66.64040868952266 115.87081115762706 H 0.0 **** 0.06
19999 H 78.3631278411584 67.00099643819767 114.78364394188426 H 0.0 **** 0.06
20000 H 78.31922534632392 67.54572122590164 116.47768270029604 H 0.0 **** 0.06
20001 C 81.69987202855417 63.829493300998195 7.896982384683753 C 0.0 **** -0.24
20002 H 81.10409362138017 64.61246853787372 8.366677981467916 H 0.0 **** 0.06
20003 H 81.24721620608793 63.55049287896264 6.9461272562095076 H 0.0 **** 0.06
20004 H 81.73501622083737 62.95872126648442 8.552108355598875 H 0.0 **** 0.06
20005 H 82.71180646047702 64.19637744601872 7.725690865085596 H 0.0 **** 0.06
20006 C 91.00735437947347 90.92866577959222 129.74510004988426 C 0.0 **** -0.24
20007 H 92.08489559727896 90.78102471080564 129.82315222149396 H 0.0 **** 0.06
20008 H 90.71571198313168 90.93019633880755 128.69446049756073 H 0.0 **** 0.06
20009 H 90.73830609793696 91.88311545534879 130.19941489386713 H 0.0 **** 0.06
20010 H 90.4914063649363 90.1206375545587 130.26441606934787 H 0.0 **** 0.06
20011 C 134.03865961627088 14.583240814419021 74.27146438446636 C 0.0 **** -0.24
20012 H 133.71676880340607 14.540067090050798 75.3116078179894 H 0.0 **** 0.06
20013 H 133.32488901008242 15.17077086197093 73.69463079137199 H 0.0 **** 0.06
20014 H 134.09195076819958 13.573204141115248 73.86559492645426 H 0.0 **** 0.06
20015 H 135.02189405463702 15.04927570633118 74.21508588757848 H 0.0 **** 0.06
20016 C 112.58707932331981 112.55537644647282 70.86285564519655 C 0.0 **** -0.24
20017 H 113.37064783918078 112.73279234755464 71.60077442654377 H 0.0 **** 0.06
20018 H 111.91552402320383 111.77723051513945 71.22654160999944 H 0.0 **** 0.06
20019 H 113.0385098613369 112.23756442582507 69.92331159379562 H 0.0 **** 0.06
20020 H 112.02528850779422 113.47597401172791 70.70253940434064 H 0.0 **** 0.06
20021 C 12.445231865239293 106.19909005458926 43.93353473719827 C 0.0 **** -0.24
20022 H 11.449065533618452 106.26921424531866 43.497254693629245 H 0.0 **** 0.06
20023 H 12.635927324606342 105.17059063403126 44.240122813881214 H 0.0 **** 0.06
20024 H 12.508445505349925 106.85551526105542 44.801008087403176 H 0.0 **** 0.06
20025 H 13.187681759588997 106.50225976604922 43.19418000471106 H 0.0 **** 0.06
20026 C 72.2304338748616 30.39108785265128 24.96762455033241 C 0.0 **** -0.24
20027 H 71.7702321386929 29.43961093164475 24.70045773016458 H 0.0 **** 0.06
20028 H 71.48277733736111 31.182694101003904 24.91952773120387 H 0.0 **** 0.06
20029 H 73.03927049946051 30.610426537594265 24.270433090452094 H 0.0 **** 0.06
20030 H 72.63067641325762 30.328911952771733 25.979658708693243 H 0.0 **** 0.06
20031 C 79.27334381781026 132.0924616076157 31.099328021999554 C 0.0 **** -0.24
20032 H 79.18369405066466 131.25432804387728 31.7904366328508 H 0.0 **** 0.06
20033 H 78.31917739789623 132.25222518143931 30.596862977868454 H 0.0 **** 0.06
20034 H 80.04269393316906 131.8726906266541 30.359272505492015 H 0.0 **** 0.06
20035 H 79.54688964197595 132.9904368874411 31.653004032083828 H 0.0 **** 0.06
20036 C 44.632434319917586 109.3337356555147 37.2195345735438 C 0.0 **** -0.24
20037 H 45.454184774323636 108.64234761497109 37.03817101321522 H 0.0 **** 0.06
20038 H 44.452551076744406 109.4110680190886 38.29218960869571 H 0.0 **** 0.06
20039 H 43.73189120077261 108.96662530082249 36.72564469434741 H 0.0 **** 0.06
20040 H 44.88973252732313 110.31520844581854 36.822043909720946 H 0.0 **** 0.06
20041 C 52.039960988053906 89.41763930228228 73.04376606478367 C 0.0 **** -0.24
20042 H 52.52373180804075 90.39394759824526 72.9986881353532 H 0.0 **** 0.06
20043 H 51.06648871165285 89.47262417591001 72.55687651316059 H 0.0 **** 0.06
20044 H 51.909246619964435 89.12518205389462 74.08547550534875 H 0.0 **** 0.06
20045 H 52.66078874371905 88.68089987703755 72.53522214345774 H 0.0 **** 0.06
20046 C 21.849800573154226 101.49948779834332 46.33627339105254 C 0.0 **** -0.24
20047 H 20.918988189286807 101.30178542706045 46.870029183938414 H 0.0 **** 0.06
20048 H 22.58131898713159 101.91890382664224 47.02680945546217 H 0.0 **** 0.06
20049 H 21.66146766628679 102.20798891596775 45.530205216496256 H 0.0 **** 0.06
20050 H 22.23390131843363 100.56868210261223 45.92010348458086 H 0.0 **** 0.06
20051 C 6.844657103307021 29.895132854940243 50.34389231291598 C 0.0 **** -0.24
20052 H 6.483288186725446 30.683141829762633 51.00437123653296 H 0.0 **** 0.06
20053 H 6.674504811700231 30.184189417090664 49.306134332602056 H 0.0 **** 0.06
20054 H 6.308897248692379 28.96985092129006 50.555629837651665 H 0.0 **** 0.06
20055 H 7.9108452168213645 29.74409795865131 50.508938877885015 H 0.0 **** 0.06
20056 C 122.3566106306647 40.38965946793824 37.837141213070566 C 0.0 **** -0.24
20057 H 121.29214404553392 40.2540416566937 37.64291760143064 H 0.0 **** 0.06
20058 H 122.70639778408759 41.28847384152525 37.32847160431703 H 0.0 **** 0.06
20059 H 122.90633897427648 39.52532887613202 37.465566990837715 H 0.0 **** 0.06
20060 H 122.52085907445081 40.491826517133305 38.90975409565716 H 0.0 **** 0.06
20061 C 127.3800032127806 77.96711167748094 40.499798702690384 C 0.0 **** -0.24
20062 H 126.76599902908241 78.4356952760466 39.730817346472236 H 0.0 **** 0.06
20063 H 128.26246680750512 77.52296839220253 40.03956746212009 H 0.0 **** 0.06
20064 H 126.80246763369962 77.18983068771212 41.00149287277057 H 0.0 **** 0.06
20065 H 127.68771509357848 78.71818363517048 41.22721424184374 H 0.0 **** 0.06
20066 C 130.06661215354052 39.698056456728224 44.544653997959244 C 0.0 **** -0.24
20067 H 129.11818885640287 40.22169313779956 44.6609935760259 H 0.0 **** 0.06
20068 H 130.03609658106137 38.76282637816942 45.10416055420583 H 0.0 **** 0.06
20069 H 130.87590945042209 40.32285922026522 44.92362562424998 H 0.0 **** 0.06
20070 H 130.23724821020176 39.48440649423913 43.48893237387466 H 0.0 **** 0.06
20071 C 65.63431125834416 65.55627839511307 101.76260025446476 C 0.0 **** -0.24
20072 H 66.00704352812932 64.79468981788574 101.0774925505336 H 0.0 **** 0.06
20073 H 64.60814968859495 65.31937168028085 102.04487447561763 H 0.0 **** 0.06
20074 H 65.66147698130325 66.52940948831464 101.27294636437205 H 0.0 **** 0.06
20075 H 66.26086548162067 65.58047292609321 102.65434769862702 H 0.0 **** 0.06
20076 C 33.733313734763 59.314497771226314 125.72780357743784 C 0.0 **** -0.24
20077 H 33.68802969951605 58.295669335424634 126.11227467660615 H 0.0 **** 0.06
20078 H 32.80456175933389 59.83372090756521 125.96598880341605 H 0.0 **** 0.06
20079 H 33.869645921335504 59.289214188688106 124.64753173681584 H 0.0 **** 0.06
20080 H 34.57131264981628 59.83916841426728 126.18762488638072 H 0.0 **** 0.06
20081 C 127.57855520104036 12.982990311664516 108.43952412804299 C 0.0 **** -0.24
20082 H 128.1034827770076 12.030739807702975 108.36642789254967 H 0.0 **** 0.06
20083 H 126.50582906346406 12.801844759475596 108.51026312503197 H 0.0 **** 0.06
20084 H 127.78768783504404 13.583232834594263 107.5540290585227 H 0.0 **** 0.06
20085 H 127.91617905247543 13.516293472322708 109.32875187342503 H 0.0 **** 0.06
20086 C 73.29507988283154 104.56904695834949 125.25187942091804 C 0.0 **** -0.24
20087 H 72.36035816141703 104.60618516577867 125.81074531454252 H 0.0 **** 0.06
20088 H 74.12690071028197 104.7941345435221 125.91941575413381 H 0.0 **** 0.06
20089 H 73.26632433582677 105.30340463181408 124.44661734633178 H 0.0 **** 0.06
20090 H 73.42716718714297 103.57185132649454 124.83007620292545 H 0.0 **** 0.06
20091 C 89.5395220085174 35.29119424165316 50.353159403069185 C 0.0 **** -0.24
20092 H 89.46886361032054 35.74776260004239 51.34006454315221 H 0.0 **** 0.06
20093 H 89.9273015446617 36.0214637914377 49.642899253960195 H 0.0 **** 0.06
20094 H 88.55121097735255 34.96161627668238 50.03391702624589 H 0.0 **** 0.06
20095 H 90.21220855839692 34.4344714549739 50.39732895730555 H 0.0 **** 0.06
20096 C 127.36874157553149 54.637098540323166 119.33490379770114 C 0.0 **** -0.24
20097 H 128.43680910453278 54.691634303458386 119.1241298217858 H 0.0 **** 0.06
20098 H 127.06402493004282 55.5204334717497 119.89601539178472 H 0.0 **** 0.06
20099 H 127.15936022168967 53.74237023424047 119.92041359867082 H 0.0 **** 0.06
20100 H 126.81615000629509 54.59430177485228 118.39574241231682 H 0.0 **** 0.06
20101 C 7.9677679331155815 19.56011528033376 64.29148715787227 C 0.0 **** -0.24
20102 H 7.684365586098306 19.858001523785532 63.281622318620975 H 0.0 **** 0.06
20103 H 7.331081969297106 18.737776420694786 64.61949462131997 H 0.0 **** 0.06
20104 H 7.846308925832563 20.40662896433119 64.96702496957852 H 0.0 **** 0.06
20105 H 9.00930119659765 19.237796389213997 64.29537082220003 H 0.0 **** 0.06
20106 C 111.59762842449226 98.35860399333458 12.046653188477435 C 0.0 **** -0.24
20107 H 112.35211757703087 99.11189557275036 12.272668591100029 H 0.0 **** 0.06
20108 H 111.13270282932604 98.02161145962982 12.973508795617661 H 0.0 **** 0.06
20109 H 112.06795452321148 97.51202571160728 11.547691688734375 H 0.0 **** 0.06
20110 H 110.8382536791454 98.78865405769095 11.39404076749382 H 0.0 **** 0.06
20111 C 13.51156024796478 102.36791098728443 107.93149128951046 C 0.0 **** -0.24
20112 H 13.614697180708959 101.6687153866532 107.10138444725263 H 0.0 **** 0.06
20113 H 14.485877286684342 102.79904796781673 108.16526757940585 H 0.0 **** 0.06
20114 H 13.12947362222809 101.83906535898997 108.80516869816292 H 0.0 **** 0.06
20115 H 12.818574665734104 103.16192956479348 107.65411695509556 H 0.0 **** 0.06
20116 C 8.455806050361506 55.39305186000128 92.02513769083312 C 0.0 **** -0.24
20117 H 7.3956019009434435 55.32492914175664 91.78414919330396 H 0.0 **** 0.06
20118 H 9.029346800002916 55.52298911055608 91.10763490608271 H 0.0 **** 0.06
20119 H 8.773732196865105 54.47935893879341 92.52726941701053 H 0.0 **** 0.06
20120 H 8.624504508196779 56.24624690357956 92.68330421873868 H 0.0 **** 0.06
20121 C 78.25154456221104 99.51041502874233 83.91580800516444 C 0.0 **** -0.24
20122 H 78.80685163365048 100.0729365410298 84.66675653542154 H 0.0 **** 0.06
20123 H 77.21513073075594 99.40156765080127 84.23685741750299 H 0.0 **** 0.06
20124 H 78.70001177516548 98.52425748617935 83.7943768121625 H 0.0 **** 0.06
20125 H 78.28323862167917 100.04429304281621 82.96564283589001 H 0.0 **** 0.06
20126 C 97.45805046416558 30.75716467837097 81.20307904392526 C 0.0 **** -0.24
20127 H 97.60848602559878 31.801031983011825 80.92599728960846 H 0.0 **** 0.06
20128 H 96.73783601902107 30.301520114374995 80.52277080919218 H 0.0 **** 0.06
20129 H 97.07988798311885 30.703523665175936 82.22360871390367 H 0.0 **** 0.06
20130 H 98.40643075663661 30.224948687785314 81.13788726772158 H 0.0 **** 0.06
20131 C 80.50169181113829 81.07738247795358 105.81384646831955 C 0.0 **** -0.24
20132 H 80.99862146896352 82.00917825652485 106.08618754486758 H 0.0 **** 0.06
20133 H 81.13755199870376 80.23393405177868 106.08168523768632 H 0.0 **** 0.06
20134 H 80.3145728400037 81.06618397963022 104.74008385663689 H 0.0 **** 0.06
20135 H 79.55413560780116 81.00271660677383 106.34795913376962 H 0.0 **** 0.06
20136 C 29.04970677036166 34.79363880957487 36.68493539218986 C 0.0 **** -0.24
20137 H 29.684693748371778 35.523841896908664 37.18747801757047 H 0.0 **** 0.06
20138 H 29.673344748823844 34.05309369450134 36.184030538501474 H 0.0 **** 0.06
20139 H 28.42560057578627 35.30171928111537 35.94949146224536 H 0.0 **** 0.06
20140 H 28.414766045250722 34.29766937182512 37.41957386650171 H 0.0 **** 0.06
20141 C 96.90892107947047 47.10490417775486 97.62522561464127 C 0.0 **** -0.24
20142 H 96.52980541394464 47.92676125059202 97.01900844252566 H 0.0 **** 0.06
20143 H 96.55936750449644 46.157752376875095 97.21274666079324 H 0.0 **** 0.06
20144 H 96.54708690860178 47.21146978950077 98.64787896007323 H 0.0 **** 0.06
20145 H 97.99822766051636 47.122759520100885 97.62216519799449 H 0.0 **** 0.06
20146 C 107.03182062399623 87.65156755642784 67.92333856585373 C 0.0 **** -0.24
20147 H 106.10221566293583 87.16287649956797 67.6320247876406 H 0.0 **** 0.06
20148 H 106.805856348096 88.5483676575019 68.50161779028718 H 0.0 **** 0.06
20149 H 107.59372814760633 87.9256262563382 67.03055313976745 H 0.0 **** 0.06
20150 H 107.62604973097825 86.96816569493043 68.53062660708179 H 0.0 **** 0.06
20151 C 79.12428082890787 26.633860504026813 123.46436349590965 C 0.0 **** -0.24
20152 H 79.2850153268532 27.364159000683486 124.25731089715094 H 0.0 **** 0.06
20153 H 79.63783328898165 25.705692289841608 123.71706241657148 H 0.0 **** 0.06
20154 H 79.51788460791244 27.02362177571851 122.5258016912793 H 0.0 **** 0.06
20155 H 78.05682388937278 26.441409479018375 123.35940007360045 H 0.0 **** 0.06
20156 C 71.21843318228527 50.886505551816924 12.634442555791523 C 0.0 **** -0.24
20157 H 71.0935919032098 51.60088180710923 11.820997868065945 H 0.0 **** 0.06
20158 H 71.87807444860232 51.31009520451627 13.391133525050833 H 0.0 **** 0.06
20159 H 71.6532843918879 49.96545048116394 12.245726638481514 H 0.0 **** 0.06
20160 H 70.24611964740876 50.669811746824365 13.078982017424977 H 0.0 **** 0.06
20161 C 24.803621795278644 91.46509024265465 100.5478547454005 C 0.0 **** -0.24
20162 H 23.94493631037028 91.8127359273005 101.12327705442804 H 0.0 **** 0.06
20163 H 24.493173258498643 90.65567599308105 99.88672362026514 H 0.0 **** 0.06
20164 H 25.574204431969434 91.10413860379606 101.22844370975595 H 0.0 **** 0.06
20165 H 25.199275568303193 92.289047759435 99.95324545666209 H 0.0 **** 0.06
20166 C 67.79707792372949 35.10828675344072 80.08514171190419 C 0.0 **** -0.24
20167 H 67.67239019099003 36.08770152157149 79.62174683761555 H 0.0 **** 0.06
20168 H 67.92725033836547 34.35364478658582 79.309738148202 H 0.0 **** 0.06
20169 H 66.91264395273663 34.87291938617011 80.67837681055596 H 0.0 **** 0.06
20170 H 68.67452149358951 35.1214717196917 80.73171653508285 H 0.0 **** 0.06
20171 C 128.30790528251546 103.18865805001023 102.89207454431437 C 0.0 **** -0.24
20172 H 127.53812629107657 102.6970186172925 102.29582282534884 H 0.0 **** 0.06
20173 H 128.76099769396467 102.46345608933638 103.56845866058785 H 0.0 **** 0.06
20174 H 127.85858393597611 103.99593222379767 103.47058971704587 H 0.0 **** 0.06
20175 H 129.07298775466379 103.59719244238289 102.23140779618012 H 0.0 **** 0.06
20176 C 33.90730082318048 1.662989916892741 28.665511807885025 C 0.0 **** -0.24
20177 H 33.01831550353342 1.1229612175981174 28.342259446449702 H 0.0 **** 0.06
20178 H 33.98796506040937 2.5967512745620525 28.107595019204126 H 0.0 **** 0.06
20179 H 34.79040681354557 1.0520619638136282 28.480485127030846 H 0.0 **** 0.06
20180 H 33.83261139211974 1.8808223767420316 29.730448672042854 H 0.0 **** 0.06
20181 C 52.065296476704546 98.05940532370164 83.15961781472897 C 0.0 **** -0.24
20182 H 52.990174279456184 97.68923166815829 82.7174904944083 H 0.0 **** 0.06
20183 H 51.92566751931221 97.60711255321033 84.14150124392951 H 0.0 **** 0.06
20184 H 51.22579125774365 97.79784093789507 82.51586390354396 H 0.0 **** 0.06
20185 H 52.12095912205713 99.14270236951761 83.26203947652179 H 0.0 **** 0.06
20186 C 76.97427405157038 65.97553956855819 91.17478038830262 C 0.0 **** -0.24
20187 H 76.59844000788522 65.18480395671475 91.82275179649736 H 0.0 **** 0.06
20188 H 77.42439547938025 66.76064322021841 91.78385518234342 H 0.0 **** 0.06
20189 H 76.15139568894068 66.3917961146833 90.59464187296294 H 0.0 **** 0.06
20190 H 77.72466713567371 65.56567030235013 90.49829942485201 H 0.0 **** 0.06
20191 C 8.947128060749634 93.94423153541315 6.493441823051427 C 0.0 **** -0.24
20192 H 8.724181224117928 93.57984594362851 5.49059242538533 H 0.0 **** 0.06
20193 H 9.122247553625385 93.09732278301367 7.156545712489333 H 0.0 **** 0.06
20194 H 8.103150417706672 94.5270076070642 6.863811768430537 H 0.0 **** 0.06
20195 H 9.836560088813172 94.57277929057732 6.462210363912789 H 0.0 **** 0.06
20196 C 134.9293113486509 103.26619931944603 89.06526131808748 C 0.0 **** -0.24
20197 H 135.29183546487445 104.2553746260129 88.78873200837613 H 0.0 **** 0.06
20198 H 133.8955349478086 103.15296552113796 88.73723606173036 H 0.0 **** 0.06
20199 H 134.98249833232236 103.14901730647767 90.14762889955676 H 0.0 **** 0.06
20200 H 135.54723209294036 102.50557914584823 88.58672916083978 H 0.0 **** 0.06
20201 C 16.024677842776384 101.07349330360032 32.6500271114047 C 0.0 **** -0.24
20202 H 15.177636537352555 100.56474821174311 32.19171123863326 H 0.0 **** 0.06
20203 H 15.81406461809911 101.25063827304109 33.70553451142421 H 0.0 **** 0.06
20204 H 16.19123557021851 102.02705952659858 32.14750237446489 H 0.0 **** 0.06
20205 H 16.916203145397617 100.4528526989194 32.55638968373347 H 0.0 **** 0.06
20206 C 93.06367286204875 124.46481030513544 117.84817765949293 C 0.0 **** -0.24
20207 H 92.58790714657258 125.13836056160535 117.13644875933142 H 0.0 **** 0.06
20208 H 93.68238755163202 123.74553969375884 117.30982547976271 H 0.0 **** 0.06
20209 H 92.29815419366972 123.93412890996643 118.41431500093915 H 0.0 **** 0.06
20210 H 93.6870596170071 125.04006377766166 118.53200323196506 H 0.0 **** 0.06
20211 C 94.18635128358744 113.21929207471655 87.22925439463158 C 0.0 **** -0.24
20212 H 94.70084023175036 112.26144697115532 87.30510907938017 H 0.0 **** 0.06
20213 H 94.88004245137955 114.0250183139087 87.47108675252629 H 0.0 **** 0.06
20214 H 93.34985489365545 113.2383976964627 87.92855252372303 H 0.0 **** 0.06
20215 H 93.8140102223822 113.35231991005881 86.21302271069226 H 0.0 **** 0.06
20216 C 116.60329336251922 120.44035958360728 10.041068235854429 C 0.0 **** -0.24
20217 H 116.08916737695787 120.19161875510228 9.112747963967372 H 0.0 **** 0.06
20218 H 117.67886672292437 120.47491535582522 9.861471440174796 H 0.0 **** 0.06
20219 H 116.38356240218639 119.68208285810913 10.791787701575448 H 0.0 **** 0.06
20220 H 116.26277730080889 121.41294136204188 10.395176296671043 H 0.0 **** 0.06
20221 C 119.81924858801317 113.4274846362323 67.9591117648742 C 0.0 **** -0.24
20222 H 120.46125762769026 112.56224599508016 68.12434054329162 H 0.0 **** 0.06
20223 H 119.57989145294869 113.50436220810874 66.8981861815297 H 0.0 **** 0.06
20224 H 120.33776386028144 114.33049311899055 68.28036341969721 H 0.0 **** 0.06
20225 H 118.89972330225203 113.31172176761805 68.53212156433139 H 0.0 **** 0.06
20226 C 128.1668051770603 87.43418249365425 86.28057984776217 C 0.0 **** -0.24
20227 H 128.82873225000748 87.7110173257734 85.45992090809393 H 0.0 **** 0.06
20228 H 127.86884267264358 86.39193494340854 86.17058708372056 H 0.0 **** 0.06
20229 H 127.28203897524413 88.07024488100107 86.2631887518517 H 0.0 **** 0.06
20230 H 128.6896466974958 87.56535392376864 87.22738859926885 H 0.0 **** 0.06
20231 C 57.760979517273654 37.142496454192305 49.03618143559619 C 0.0 **** -0.24
20232 H 56.986606890305225 37.64621694338279 49.61441819390272 H 0.0 **** 0.06
20233 H 58.61536500924802 37.80922925907643 48.91595290452349 H 0.0 **** 0.06
20234 H 57.366036548642455 36.87784795395999 48.054874997513366 H 0.0 **** 0.06
20235 H 58.074499609137206 36.238992642751406 49.5581690115078 H 0.0 **** 0.06
20236 C 12.177093463941063 95.8614591984053 79.4196404872694 C 0.0 **** -0.24
20237 H 11.801485402445422 95.98950707928225 80.43505538114553 H 0.0 **** 0.06
20238 H 12.448289776312336 96.83297345689687 79.0070188127189 H 0.0 **** 0.06
20239 H 11.402598244811287 95.40693323944481 78.80164988745788 H 0.0 **** 0.06
20240 H 13.054504601142924 95.21495190299638 79.43561152261982 H 0.0 **** 0.06
20241 C 91.88882154429038 131.80780768559208 5.150789699458983 C 0.0 **** -0.24
20242 H 91.75612057367279 130.95878721363118 4.480813792539436 H 0.0 **** 0.06
20243 H 91.47454106067308 132.70387011410713 4.688867780878695 H 0.0 **** 0.06
20244 H 92.95079077256923 131.9553390377921 5.344923364280305 H 0.0 **** 0.06
20245 H 91.37171288361246 131.61128901742836 6.090945107825235 H 0.0 **** 0.06
20246 C 39.49707860943903 98.2846240384001 59.692862613636834 C 0.0 **** -0.24
20247 H 38.66225034047915 98.98207320310725 59.63473840820181 H 0.0 **** 0.06
20248 H 40.43251107955106 98.84196772178856 59.74249300280515 H 0.0 **** 0.06
20249 H 39.49990029018261 97.646009061979 58.810119749546644 H 0.0 **** 0.06
20250 H 39.39409035518955 97.66840994201988 60.586050538519814 H 0.0 **** 0.06
20251 C 84.54448368744919 14.318839735640616 48.49590824003424 C 0.0 **** -0.24
20252 H 84.45547647568739 13.555603575958465 49.26887546745583 H 0.0 **** 0.06
20253 H 85.08738453063067 15.176643024175704 48.89300427562368 H 0.0 **** 0.06
20254 H 83.54987301725497 14.632710935625184 48.179802993004145 H 0.0 **** 0.06
20255 H 85.0861015721669 13.910469839954501 47.64237898953327 H 0.0 **** 0.06
20256 C 101.67733094994355 79.63849946172581 53.45605330495469 C 0.0 **** -0.24
20257 H 102.20916589402323 79.04151883302754 52.7148820665152 H 0.0 **** 0.06
20258 H 100.60279705941423 79.51475808558814 53.31754663038306 H 0.0 **** 0.06
20259 H 101.94143239952012 80.68837507860712 53.334264077717265 H 0.0 **** 0.06
20260 H 101.95530651581717 79.30702603386209 54.45703884944099 H 0.0 **** 0.06
20261 C 79.56109918809904 23.00210666187121 135.51189991780794 C 0.0 **** -0.24
20262 H 79.43079770150577 24.007469296275588 135.9118005766681 H 0.0 **** 0.06
20263 H 80.59174504643703 22.8748343092808 135.17751238206165 H 0.0 **** 0.06
20264 H 78.8854042766172 22.856011903189597 134.66947024927953 H 0.0 **** 0.06
20265 H 79.33851286155802 22.27058465659522 136.28809570541375 H 0.0 **** 0.06
20266 C 15.920591462763788 19.689985849128377 59.100931992173344 C 0.0 **** -0.24
20267 H 16.735370088534232 19.0331660233839 58.795383969635395 H 0.0 **** 0.06
20268 H 16.307115082197 20.463387402582796 59.76400630897007 H 0.0 **** 0.06
20269 H 15.162142810476702 19.106768552254124 59.62460494226303 H 0.0 **** 0.06
20270 H 15.477392077922055 20.15424194176451 58.2192649899016 H 0.0 **** 0.06
20271 C 41.822293986154676 66.71255103411238 57.23853298272793 C 0.0 **** -0.24
20272 H 41.036515718070575 65.95749803366682 57.199653857970205 H 0.0 **** 0.06
20273 H 42.58924394524291 66.47614808026633 56.501337323358015 H 0.0 **** 0.06
20274 H 42.265512502214705 66.72245630894186 58.23471787145439 H 0.0 **** 0.06
20275 H 41.396520960839496 67.69150325121625 57.01995137963985 H 0.0 **** 0.06
20276 C 79.22748079348258 16.89402501361382 47.80691855765156 C 0.0 **** -0.24
20277 H 79.65693759139563 17.876418009211335 48.004154299865206 H 0.0 **** 0.06
20278 H 79.79587193665586 16.40150006925598 47.018285103033975 H 0.0 **** 0.06
20279 H 78.19098352734525 17.008989873137793 47.49000760114154 H 0.0 **** 0.06
20280 H 79.26585270105011 16.292279314957966 48.71460062908224 H 0.0 **** 0.06
20281 C 124.92809595989873 125.69368077163529 110.03662295554227 C 0.0 **** -0.24
20282 H 123.96230372574628 125.7672234729821 109.53548929194415 H 0.0 **** 0.06
20283 H 124.93980294523172 124.81059531833824 110.67547120872439 H 0.0 **** 0.06
20284 H 125.08997219556932 126.58372013081242 110.6440166072613 H 0.0 **** 0.06
20285 H 125.71897901546721 125.61343047418717 109.2910889670373 H 0.0 **** 0.06
20286 C 109.78113850250875 128.5649070733284 97.43894849418977 C 0.0 **** -0.24
20287 H 109.67414200349123 128.92457251229342 96.41569800124194 H 0.0 **** 0.06
20288 H 110.83275157309367 128.36647367510386 97.64687688696362 H 0.0 **** 0.06
20289 H 109.20590197608831 127.64651603691271 97.56357989780817 H 0.0 **** 0.06
20290 H 109.41007018828782 129.32189324101785 98.12998562553045 H 0.0 **** 0.06
20291 C 27.156303909412316 7.1906568674016285 4.295203860513482 C 0.0 **** -0.24
20292 H 27.070047077702043 7.629092188864149 5.289757188470503 H 0.0 **** 0.06
20293 H 26.17221823587238 6.866348362549871 3.9548106967244507 H 0.0 **** 0.06
20294 H 27.829662232783846 6.334234539398636 4.333301583166417 H 0.0 **** 0.06
20295 H 27.552837202335468 7.9349424345667785 3.6038606369646686 H 0.0 **** 0.06
20296 C 125.59640242824607 84.10236723276994 107.37458767474175 C 0.0 **** -0.24
20297 H 126.14006484918944 83.15891392556397 107.32217483523158 H 0.0 **** 0.06
20298 H 125.29316801358529 84.2900845156405 108.40455863060657 H 0.0 **** 0.06
20299 H 124.71410403290623 84.04939672982283 106.73829478809068 H 0.0 **** 0.06
20300 H 126.24197399121822 84.91160044779512 107.03347916301351 H 0.0 **** 0.06
20301 C 127.65187757952665 13.54989451487102 31.668872631587405 C 0.0 **** -0.24
20302 H 126.9864462101016 12.747508428770537 31.349267008659154 H 0.0 **** 0.06
20303 H 127.98913859488079 13.357227334151847 32.68718614624166 H 0.0 **** 0.06
20304 H 127.11750207673234 14.49945923397707 31.635231286148496 H 0.0 **** 0.06
20305 H 128.51303482399317 13.593784937280006 31.002574002025767 H 0.0 **** 0.06
20306 C 18.03248123642973 103.15288261356841 3.932902464919266 C 0.0 **** -0.24
20307 H 17.175098604302825 103.77816775521191 4.179613880029422 H 0.0 **** 0.06
20308 H 18.77372279408027 103.22196883585467 4.72964593122947 H 0.0 **** 0.06
20309 H 18.471804966879382 103.49252625082212 2.9959457767098456 H 0.0 **** 0.06
20310 H 17.708121909626243 102.11748571660289 3.8277104269581628 H 0.0 **** 0.06
20311 C 20.026693620516376 85.45730549836607 15.764187520964725 C 0.0 **** -0.24
20312 H 20.532652606852643 85.11549597966255 14.861511611214056 H 0.0 **** 0.06
20313 H 20.706449603721296 86.07718068514183 16.34983047793928 H 0.0 **** 0.06
20314 H 19.718575984180127 84.59544950113207 16.356786762698945 H 0.0 **** 0.06
20315 H 19.1477333855629 86.04123132668317 15.488973696891989 H 0.0 **** 0.06
20316 C 122.9191676228148 36.76655630119507 37.30381618874185 C 0.0 **** -0.24
20317 H 123.34582679429884 37.67969782280014 36.88730372495644 H 0.0 **** 0.06
20318 H 122.65770948897128 36.08500158464631 36.494056411429455 H 0.0 **** 0.06
20319 H 122.02443156054962 37.01293686017244 37.87544199003182 H 0.0 **** 0.06
20320 H 123.64925413778548 36.290961330358776 37.958723179877836 H 0.0 **** 0.06
20321 C 65.85777293202153 86.83042112796959 25.067379237553723 C 0.0 **** -0.24
20322 H 66.89969807625647 86.97618827614751 24.782077640727607 H 0.0 **** 0.06
20323 H 65.61148812207114 85.76997401845644 25.015065045584265 H 0.0 **** 0.06
20324 H 65.21328646404606 87.38755536122213 24.386803202393082 H 0.0 **** 0.06
20325 H 65.7060348696873 87.18959503507317 26.08548225205533 H 0.0 **** 0.06
20326 C 5.744583011366444 104.85548487271076 110.7766623311467 C 0.0 **** -0.24
20327 H 6.035562364923521 105.05137743059286 111.80919379924879 H 0.0 **** 0.06
20328 H 5.392936071922122 103.8266495092209 110.68800921277699 H 0.0 **** 0.06
20329 H 6.6040420447930615 105.0030372963958 110.12309329086622 H 0.0 **** 0.06
20330 H 4.946128011681026 105.53893482973027 110.48838327409484 H 0.0 **** 0.06
20331 C 71.54086515669866 10.322935767150625 5.994199444889752 C 0.0 **** -0.24
20332 H 72.32551867664826 11.072936164890166 5.898819778765819 H 0.0 **** 0.06
20333 H 71.37895992097093 9.841767932366452 5.029976834940751 H 0.0 **** 0.06
20334 H 70.61806199633364 10.802459235305747 6.320499348178398 H 0.0 **** 0.06
20335 H 71.84051032259849 9.575207252563047 6.728163940680723 H 0.0 **** 0.06
20336 C 47.448367024445716 136.53446683888728 119.49828555264901 C 0.0 **** -0.24
20337 H 46.97111789487643 135.80789912333242 118.84113971088995 H 0.0 **** 0.06
20338 H 47.05146547768972 137.52818609032994 119.29132840446411 H 0.0 **** 0.06
20339 H 48.523729760565445 136.5285423888704 119.3244670227575 H 0.0 **** 0.06
20340 H 47.24694688909439 136.2709974633121 120.5371709809461 H 0.0 **** 0.06
20341 C 61.22623729042412 80.59524771796046 56.58856758450685 C 0.0 **** -0.24
20342 H 61.68752208407041 81.40812723311217 57.14812833029589 H 0.0 **** 0.06
20343 H 60.30640315798392 80.95003234413853 56.12309349901284 H 0.0 **** 0.06
20344 H 60.99762645485576 79.77184402506641 57.26606928939083 H 0.0 **** 0.06
20345 H 61.91449390990063 80.24964639959173 55.81698308891458 H 0.0 **** 0.06
20346 C 82.05349802223111 9.375813282020061 45.76916636130994 C 0.0 **** -0.24
20347 H 81.44221962920669 8.718931308986384 46.38819210629754 H 0.0 **** 0.06
20348 H 83.10812687918856 9.156131022935341 45.938038453419495 H 0.0 **** 0.06
20349 H 81.85121784056733 10.41478440923433 46.03351818515148 H 0.0 **** 0.06
20350 H 81.81143750351288 9.214552604584924 44.71884177048173 H 0.0 **** 0.06
20351 C 38.71004423186639 131.54758070028547 123.2794301868663 C 0.0 **** -0.24
20352 H 39.095334369662396 131.02495711584126 124.15495812015445 H 0.0 **** 0.06
20353 H 38.44397612193217 130.82068775296787 122.51117337741805 H 0.0 **** 0.06
20354 H 39.4739806987011 132.2214717429751 122.89352225497345 H 0.0 **** 0.06
20355 H 37.826655662991016 132.12130933375073 123.55865791798192 H 0.0 **** 0.06
20356 C 42.45082763739194 53.110348144594695 109.98071543839808 C 0.0 **** -0.24
20357 H 42.32065859488702 53.09262474053452 108.89835367175937 H 0.0 **** 0.06
20358 H 42.4871656756261 54.14423842140144 110.32493416786676 H 0.0 **** 0.06
20359 H 43.382470620567744 52.60805300187968 110.24222839914961 H 0.0 **** 0.06
20360 H 41.61463559419444 52.59715331734907 110.45596065285463 H 0.0 **** 0.06
20361 C 20.30841678087726 42.986088442458936 88.16450007176546 C 0.0 **** -0.24
20362 H 19.283822442162105 42.84817324262053 88.51180103951341 H 0.0 **** 0.06
20363 H 20.42985521136876 44.00217687339432 87.78841086129016 H 0.0 **** 0.06
20364 H 20.519463178269596 42.27474175701195 87.36619852414081 H 0.0 **** 0.06
20365 H 20.997275448464613 42.8191236798707 88.99223284274902 H 0.0 **** 0.06
20366 C 29.264222116244127 2.2824355618958805 63.06290263486176 C 0.0 **** -0.24
20367 H 29.865818020047172 1.5274767103085765 62.55694458106609 H 0.0 **** 0.06
20368 H 28.743902352911817 1.8268902840745795 63.90602003586275 H 0.0 **** 0.06
20369 H 28.534746044251335 2.6932134832304087 62.36480147672859 H 0.0 **** 0.06
20370 H 29.91191167173995 3.080846228946541 63.4237497841774 H 0.0 **** 0.06
20371 C 34.41371658193219 58.42495687153816 102.29456075153556 C 0.0 **** -0.24
20372 H 35.222809740240486 58.21222076543589 101.59635975011543 H 0.0 **** 0.06
20373 H 33.659164586176125 57.64136607396598 102.22662840470791 H 0.0 **** 0.06
20374 H 33.96322257629069 59.38588904031181 102.04445754061902 H 0.0 **** 0.06
20375 H 34.80943593804002 58.46228156773178 103.30969233786317 H 0.0 **** 0.06
20376 C 19.501525791249037 19.015457634820223 118.02556004566395 C 0.0 **** -0.24
20377 H 18.854899026911085 19.572508418338273 118.70291982781492 H 0.0 **** 0.06
20378 H 20.365934049709608 18.640893937271272 118.57463335748452 H 0.0 **** 0.06
20379 H 19.83834354673803 19.671534766875794 117.22254031549525 H 0.0 **** 0.06
20380 H 18.948582510547283 18.17724176937213 117.60177714635492 H 0.0 **** 0.06
20381 C 98.31212296366786 103.39343769666537 45.95543882679543 C 0.0 **** -0.24
20382 H 97.8663769792916 102.40717358009792 45.8250598190607 H 0.0 **** 0.06
20383 H 97.68894993050992 103.98774435997078 46.62484012194389 H 0.0 **** 0.06
20384 H 98.38418687972688 103.89063354105286 44.988433078044565 H 0.0 **** 0.06
20385 H 99.30873598148128 103.28696608289381 46.38527182567988 H 0.0 **** 0.06
20386 C 44.448637851369256 28.973222049439357 37.89181105307674 C 0.0 **** -0.24
20387 H 43.55235931052556 29.55506344774807 37.67463262675207 H 0.0 **** 0.06
20388 H 44.41949207205158 28.038013754989834 37.332631266772296 H 0.0 **** 0.06
20389 H 44.49127695543211 28.758238734650604 38.959792872702906 H 0.0 **** 0.06
20390 H 45.330776669392606 29.543933505055122 37.60027093942389 H 0.0 **** 0.06
20391 C 96.51650695053291 3.1480120255970405 65.30776028873223 C 0.0 **** -0.24
20392 H 95.55435549975596 2.902146445431015 65.75694149603879 H 0.0 **** 0.06
20393 H 96.69991328993603 2.4880529080752467 64.45968413985356 H 0.0 **** 0.06
20394 H 97.3063005443895 3.0172531486362004 66.04740969901009 H 0.0 **** 0.06
20395 H 96.50443719055636 4.183192233263128 64.9679996705075 H 0.0 **** 0.06
20396 C 12.173719628830213 11.940790964476498 26.853885584320473 C 0.0 **** -0.24
20397 H 12.164733008117764 12.98295457852413 26.53375540718431 H 0.0 **** 0.06
20398 H 12.570568627380453 11.318848600229614 26.05115670338207 H 0.0 **** 0.06
20399 H 11.157348244209231 11.625170867559532 27.09071517112813 H 0.0 **** 0.06
20400 H 12.801537087733323 11.83791995069025 27.738678685106898 H 0.0 **** 0.06
20401 C 72.3825110425409 21.616934953372947 85.23617502879985 C 0.0 **** -0.24
20402 H 72.93115608826102 22.555338813361573 85.32391856004396 H 0.0 **** 0.06
20403 H 72.8185770717649 21.014724712259238 84.43840227996495 H 0.0 **** 0.06
20404 H 71.33898350190913 21.82713460995646 85.00324283868115 H 0.0 **** 0.06
20405 H 72.44251461349126 21.072197344701067 86.17821460120953 H 0.0 **** 0.06
20406 C 43.1528623923673 24.69770490173704 27.23192652148441 C 0.0 **** -0.24
20407 H 43.677530611663315 24.54607490633194 28.174677611187064 H 0.0 **** 0.06
20408 H 42.5850819837969 23.800423521063863 26.983729746400797 H 0.0 **** 0.06
20409 H 43.875102080742295 24.900827796131438 26.44105169153147 H 0.0 **** 0.06
20410 H 42.47153220438503 25.54449658840818 27.32787018203919 H 0.0 **** 0.06
20411 C 71.31346482602598 9.033816054813599 86.38331798515209 C 0.0 **** -0.24
20412 H 71.41300902780037 8.00929761728213 86.7405279242293 H 0.0 **** 0.06
20413 H 70.32255971343237 9.412151461531153 86.63577485358492 H 0.0 **** 0.06
20414 H 71.44660637019567 9.055747583295897 85.3018095994883 H 0.0 **** 0.06
20415 H 72.07168716526475 9.659018315145602 86.8554695580394 H 0.0 **** 0.06
20416 C 10.90660507203378 46.1705235075446 85.20387394153806 C 0.0 **** -0.24
20417 H 11.988113761023978 46.04329623057002 85.23344036684838 H 0.0 **** 0.06
20418 H 10.601475224315745 46.863421192623505 85.98952064635483 H 0.0 **** 0.06
20419 H 10.422666950832411 45.207308731550356 85.3619157046025 H 0.0 **** 0.06
20420 H 10.613698266099263 46.56978063241277 84.23359390694125 H 0.0 **** 0.06
20421 C 49.426727608114845 72.68311236664653 71.52264382474115 C 0.0 **** -0.24
20422 H 50.31372264600742 72.36404583660988 70.97371259333232 H 0.0 **** 0.06
20423 H 48.956579715816304 73.51601211143752 71.00081723647895 H 0.0 **** 0.06
20424 H 49.71489727012215 72.99733515824826 72.52580300710082 H 0.0 **** 0.06
20425 H 48.72390622658543 71.85208715473075 71.58963866443992 H 0.0 **** 0.06
20426 C 60.295000179172575 126.86414274589917 125.04532605097972 C 0.0 **** -0.24
20427 H 60.38315309916959 127.94360327277357 125.16465356552845 H 0.0 **** 0.06
20428 H 59.247419463591825 126.59931776171727 124.89780828821353 H 0.0 **** 0.06
20429 H 60.672755855896185 126.36763516161675 125.94016347480135 H 0.0 **** 0.06
20430 H 60.87655925343307 126.54476599713121 124.1805303545932 H 0.0 **** 0.06
20431 C 56.32677218062709 128.5537706422406 76.14689405164319 C 0.0 **** -0.24
20432 H 56.19156382186496 129.6335509615635 76.2248255888868 H 0.0 **** 0.06
20433 H 57.31279505432579 128.2836865173704 76.52522265210052 H 0.0 **** 0.06
20434 H 56.24203107831457 128.2525428130938 75.1028476947198 H 0.0 **** 0.06
20435 H 55.56075355787061 128.04875961173113 76.7348909609986 H 0.0 **** 0.06
20436 C 102.01833756722894 62.74033508737908 17.412369703210572 C 0.0 **** -0.24
20437 H 101.97481493734898 61.66457626040605 17.23622520308343 H 0.0 **** 0.06
20438 H 102.11943147760269 62.92867788325607 18.481673738926084 H 0.0 **** 0.06
20439 H 101.10231891307131 63.205044555987286 17.046485794601885 H 0.0 **** 0.06
20440 H 102.87530451219897 63.160500810974526 16.885688118084012 H 0.0 **** 0.06
20441 C 28.12433371774594 49.82410053576612 19.915905095099845 C 0.0 **** -0.24
20442 H 27.10623306729596 50.21114291458328 19.871314351201846 H 0.0 **** 0.06
20443 H 28.40201694973797 49.41998195197657 18.94233626760233 H 0.0 **** 0.06
20444 H 28.179493693574912 49.03604241158487 20.666823083326932 H 0.0 **** 0.06
20445 H 28.807459558485334 50.629927302032314 20.184135153006928 H 0.0 **** 0.06
20446 C 109.1078982210777 22.20212911796827 59.71204040836835 C 0.0 **** -0.24
20447 H 109.28178923609664 22.435510967196095 58.66123884496426 H 0.0 **** 0.06
20448 H 109.90052605171351 22.643227034918603 60.31760615876681 H 0.0 **** 0.06
20449 H 109.10587946515045 21.12051185095123 59.848117918432536 H 0.0 **** 0.06
20450 H 108.1452578056103 22.60916586767435 60.02046957055376 H 0.0 **** 0.06
20451 C 49.9290351289022 114.42462214471689 57.784563959686395 C 0.0 **** -0.24
20452 H 50.293205035484675 113.40260474451 57.67722896769001 H 0.0 **** 0.06
20453 H 48.95502805867194 114.51448728757398 57.3054611922267 H 0.0 **** 0.06
20454 H 50.63213473718503 115.11147920147141 57.31279027072625 H 0.0 **** 0.06
20455 H 49.83845496307386 114.66857368228708 58.84275624573391 H 0.0 **** 0.06
20456 C 56.50380184112731 80.17245111046601 50.94145495800355 C 0.0 **** -0.24
20457 H 57.301155534671864 79.68198847565421 50.38341326049462 H 0.0 **** 0.06
20458 H 55.5735871241731 80.11372124468159 50.37497767110658 H 0.0 **** 0.06
20459 H 56.76373374586386 81.21783050197718 51.10497055060125 H 0.0 **** 0.06
20460 H 56.3752397983792 79.675129040087 51.903156913040604 H 0.0 **** 0.06
20461 C 112.97697346408188 1.4073309301407448 31.82643951522782 C 0.0 **** -0.24
20462 H 113.79335469948896 1.3763239617805993 32.54838226448223 H 0.0 **** 0.06
20463 H 113.15166594395356 0.6620686977503851 31.048795687390253 H 0.0 **** 0.06
20464 H 112.92861634704684 2.3986706098218065 31.375259599640245 H 0.0 **** 0.06
20465 H 112.03553833142783 1.1918683944305997 32.33153043421683 H 0.0 **** 0.06
20466 C 99.94917526510042 95.13877247951672 84.05446857963203 C 0.0 **** -0.24
20467 H 99.17984370084538 95.71825540062008 84.56526753489672 H 0.0 **** 0.06
20468 H 100.06512612209131 94.17425108813129 84.5488196162502 H 0.0 **** 0.06
20469 H 100.89405049689505 95.68089030633749 84.08852893663071 H 0.0 **** 0.06
20470 H 99.65688295180419 94.98302421138538 83.01602756538247 H 0.0 **** 0.06
20471 C 110.15183876619648 135.10264479745643 62.619246887276645 C 0.0 **** -0.24
20472 H 109.42472595811822 135.58400734075545 63.27304281605089 H 0.0 **** 0.06
20473 H 110.66144475685314 135.86061990067697 62.02385914198703 H 0.0 **** 0.06
20474 H 109.6378034358282 134.40474622962856 61.95678977573826 H 0.0 **** 0.06
20475 H 110.88096972827637 134.5620329413503 63.22207014937395 H 0.0 **** 0.06
20476 C 84.51921133492729 41.30410800494063 82.33867340709918 C 0.0 **** -0.24
20477 H 83.9675564724392 40.457587568812436 81.93043315730847 H 0.0 **** 0.06
20478 H 84.59474737380525 41.199831943877214 83.42139447324098 H 0.0 **** 0.06
20479 H 83.9943501255389 42.229036445197856 82.0980301250031 H 0.0 **** 0.06
20480 H 85.51891885842483 41.330380394290344 81.90436968880294 H 0.0 **** 0.06
20481 C 104.3631896902316 54.03514195746118 63.217231665718415 C 0.0 **** -0.24
20482 H 104.794673258496 55.02992649161473 63.106946965459684 H 0.0 **** 0.06
20483 H 105.06412267026685 53.29096913433426 62.83721338445939 H 0.0 **** 0.06
20484 H 103.43219462822196 53.97839360766922 62.65348982224867 H 0.0 **** 0.06
20485 H 104.16308280842605 53.84163757202073 64.27089827896471 H 0.0 **** 0.06
20486 C 103.04429302138485 49.49140972653204 55.58878938987317 C 0.0 **** -0.24
20487 H 103.50877547869003 48.63407563201751 56.076395151401016 H 0.0 **** 0.06
20488 H 102.36869177094863 49.9838560135492 56.28826967679214 H 0.0 **** 0.06
20489 H 102.48319962460567 49.15387434625438 54.71705252830429 H 0.0 **** 0.06
20490 H 103.81734761500135 50.192338024182575 55.273676420164804 H 0.0 **** 0.06
20491 C 5.706786296282786 92.16445529987737 52.93055933728955 C 0.0 **** -0.24
20492 H 5.246561451599774 91.22233236671678 52.6339004408062 H 0.0 **** 0.06
20493 H 5.324056962564782 92.96913265041388 52.30268300730067 H 0.0 **** 0.06
20494 H 6.787742660660541 92.09286963269147 52.8132995525105 H 0.0 **** 0.06
20495 H 5.467042019793041 92.37198160378813 53.97399770767883 H 0.0 **** 0.06
20496 C 62.923715571860726 120.33540429751582 12.075180161455851 C 0.0 **** -0.24
20497 H 62.47518752894132 121.30687746755933 11.865128784917346 H 0.0 **** 0.06
20498 H 63.16459223840559 119.83689446775179 11.135988239242796 H 0.0 **** 0.06
20499 H 62.22031401960243 119.72508971939004 12.640867703138948 H 0.0 **** 0.06
20500 H 63.83411162067057 120.47436018070982 12.657323879594575 H 0.0 **** 0.06
20501 C 9.905165839780238 102.20589623578059 54.933243824019684 C 0.0 **** -0.24
20502 H 10.401304037362308 101.42073509016922 54.36307550800399 H 0.0 **** 0.06
20503 H 9.743712283963504 101.86399672786507 55.956063253296406 H 0.0 **** 0.06
20504 H 8.946173849391272 102.43989520825733 54.47158174020018 H 0.0 **** 0.06
20505 H 10.531450983705327 103.09838943345122 54.94358348960404 H 0.0 **** 0.06
20506 C 17.32049343913141 71.94252257399128 24.224164372064564 C 0.0 **** -0.24
20507 H 18.067719082218105 71.14881792602334 24.189626030901586 H 0.0 **** 0.06
20508 H 17.16790138022577 72.25126098266928 25.257986062418162 H 0.0 **** 0.06
20509 H 16.381044625540568 71.57419049683953 23.81163621086469 H 0.0 **** 0.06
20510 H 17.666188128321494 72.79299145843315 23.63693877768332 H 0.0 **** 0.06
20511 C 78.17702596318098 124.65657551254617 104.14358377494243 C 0.0 **** -0.24
20512 H 78.04088965304615 125.57665997429022 103.57634529596488 H 0.0 **** 0.06
20513 H 79.24212394867922 124.44002480808659 104.23490851472029 H 0.0 **** 0.06
20514 H 77.68131471396421 123.83494856926119 103.6269411832071 H 0.0 **** 0.06
20515 H 77.74325039316336 124.7752703598769 105.13730729063197 H 0.0 **** 0.06
20516 C 40.6468110443281 63.46658456565471 51.07378529159463 C 0.0 **** -0.24
20517 H 40.48652478291973 64.15562574957976 51.902841748827484 H 0.0 **** 0.06
20518 H 39.68537524725613 63.18343151015135 50.6455066318657 H 0.0 **** 0.06
20519 H 41.15960940410196 62.575206922876205 51.43722149166179 H 0.0 **** 0.06
20520 H 41.25695009625704 63.95141760607058 50.31101771854483 H 0.0 **** 0.06
20521 C 44.74924523971745 53.701978192721185 74.28743376601147 C 0.0 **** -0.24
20522 H 45.7795036751463 54.057475548993864 74.28791776527092 H 0.0 **** 0.06
20523 H 44.11149781619282 54.43703873290639 73.79617894398609 H 0.0 **** 0.06
20524 H 44.41457532962788 53.5596832221955 75.3157062608866 H 0.0 **** 0.06
20525 H 44.691850080472534 52.754387891909005 73.75298973582653 H 0.0 **** 0.06
20526 C 70.92978725618154 38.51757595606273 101.95902262770682 C 0.0 **** -0.24
20527 H 71.93718912538151 38.32895831279407 102.33004947327737 H 0.0 **** 0.06
20528 H 70.9117927736563 39.46948771333098 101.42655633408452 H 0.0 **** 0.06
20529 H 70.23583026502352 38.5573028486985 102.7986180832716 H 0.0 **** 0.06
20530 H 70.63600093709366 37.71631642215476 101.28122486808093 H 0.0 **** 0.06
20531 C 85.73222156528811 39.42243496254713 5.0812721168999815 C 0.0 **** -0.24
20532 H 85.74312821739906 38.73289910047606 4.237245224492369 H 0.0 **** 0.06
20533 H 84.70286861247651 39.590628949451116 5.399348186577413 H 0.0 **** 0.06
20534 H 86.17968623669958 40.37044081333829 4.781509929915217 H 0.0 **** 0.06
20535 H 86.30244168941783 38.99610058687318 5.905839890194528 H 0.0 **** 0.06
20536 C 22.544816859581033 94.70212056993903 9.232627914177272 C 0.0 **** -0.24
20537 H 23.108305842407106 95.25605556514749 9.983720630011874 H 0.0 **** 0.06
20538 H 22.923102123813237 94.94987339284368 8.240283260505237 H 0.0 **** 0.06
20539 H 21.49104100173173 94.97070749008675 9.298404158215078 H 0.0 **** 0.06
20540 H 22.659849739490483 93.63271844362205 9.408328150605314 H 0.0 **** 0.06
20541 C 130.6566316647922 17.112494529570398 92.54782305292065 C 0.0 **** -0.24
20542 H 130.96769956601906 16.439085819569385 93.34751462364336 H 0.0 **** 0.06
20543 H 131.332965504495 17.966230411459662 92.50951342974427 H 0.0 **** 0.06
20544 H 129.64128816363444 17.458999524598923 92.7398644913205 H 0.0 **** 0.06
20545 H 130.68579947934563 16.581427508669833 91.59565017719325 H 0.0 **** 0.06
20546 C 83.41065475578137 41.2811683800781 48.07619718480477 C 0.0 **** -0.24
20547 H 82.756323548496 42.041073525368176 48.503748254512615 H 0.0 **** 0.06
20548 H 83.9426279719747 40.767096246986625 48.877795888000065 H 0.0 **** 0.06
20549 H 84.13042735096624 41.755975853619475 47.40869259207962 H 0.0 **** 0.06
20550 H 82.8144688390031 40.56215198256797 47.51547552865817 H 0.0 **** 0.06
20551 C 4.148138356977938 116.04598427473894 92.96056526574228 C 0.0 **** -0.24
20552 H 4.367240710688748 115.47560914254262 93.86269961619655 H 0.0 **** 0.06
20553 H 4.224160278514972 115.39278794096606 92.0910652392273 H 0.0 **** 0.06
20554 H 4.863862038435059 116.8629436803302 92.86428939834656 H 0.0 **** 0.06
20555 H 3.1396072853383714 116.45305446406263 93.02355685570694 H 0.0 **** 0.06
20556 C 89.20268638065096 94.36620535809693 100.5455278925019 C 0.0 **** -0.24
20557 H 88.43634179592823 95.10720543325492 100.32096639258363 H 0.0 **** 0.06
20558 H 88.94245574175011 93.84255449934545 101.46559358076122 H 0.0 **** 0.06
20559 H 90.16366688065838 94.86409439080379 100.67029967586727 H 0.0 **** 0.06
20560 H 89.26769822788555 93.65045236265269 99.72643318453882 H 0.0 **** 0.06
20561 C 27.258207772116833 19.98682779615831 115.43704617700595 C 0.0 **** -0.24
20562 H 27.52124387127295 21.016457394117197 115.19202572544731 H 0.0 **** 0.06
20563 H 26.327974243062165 19.976176435389874 116.00600420783746 H 0.0 **** 0.06
20564 H 28.054762591719182 19.54086777649701 116.0327693926551 H 0.0 **** 0.06
20565 H 27.128965484967893 19.41671467234221 114.51812538143403 H 0.0 **** 0.06
20566 C 68.60540554467107 52.60723410022359 11.551491663292495 C 0.0 **** -0.24
20567 H 69.36080392705894 53.26355308716961 11.983077937460848 H 0.0 **** 0.06
20568 H 68.0316314887295 53.15648690383395 10.804108350652484 H 0.0 **** 0.06
20569 H 67.93658094877739 52.25828272219559 12.338579130231494 H 0.0 **** 0.06
20570 H 69.09160319266493 51.75283712154197 11.081633527714814 H 0.0 **** 0.06
20571 C 112.53596243572045 83.0601000828427 128.14581172242308 C 0.0 **** -0.24
20572 H 112.43117453965255 82.22051243993636 127.45761028842475 H 0.0 **** 0.06
20573 H 112.10489871555396 82.79403000279237 129.11127579352822 H 0.0 **** 0.06
20574 H 112.01480757756471 83.92798162715377 127.74126219731934 H 0.0 **** 0.06
20575 H 113.59259877449182 83.2963299634593 128.27152628928155 H 0.0 **** 0.06
20576 C 3.671344931778254 10.810768659399685 121.41510136793386 C 0.0 **** -0.24
20577 H 4.640035429100028 11.101295960019712 121.8232443913596 H 0.0 **** 0.06
20578 H 3.77321247143648 10.610761884809477 120.34785049927378 H 0.0 **** 0.06
20579 H 2.9561263534069546 11.619099451502223 121.56693276219967 H 0.0 **** 0.06
20580 H 3.317949630802719 9.912608095460769 121.9215156463709 H 0.0 **** 0.06
20581 C 117.17273697499724 106.26202408605076 134.61370718160663 C 0.0 **** -0.24
20582 H 117.44598408350356 106.78315455349123 135.5312098318002 H 0.0 **** 0.06
20583 H 116.19591699626625 106.6090038689992 134.27667183608904 H 0.0 **** 0.06
20584 H 117.13355438043092 105.18921525421361 134.8023099198632 H 0.0 **** 0.06
20585 H 117.91702829529052 106.4684952448888 133.8439304595732 H 0.0 **** 0.06
20586 C 99.15788855642825 11.78404167760975 8.640804423966642 C 0.0 **** -0.24
20587 H 100.11881096651189 11.964644287080453 9.12363972530278 H 0.0 **** 0.06
20588 H 98.85035689356482 12.677620776512754 8.097615016184534 H 0.0 **** 0.06
20589 H 98.41097281005074 11.543847988468212 9.398121377312975 H 0.0 **** 0.06
20590 H 99.25165972628292 10.94995139181069 7.946061751219133 H 0.0 **** 0.06
20591 C 81.82774424386041 48.56923851374722 112.89401118553408 C 0.0 **** -0.24
20592 H 82.00442122364282 47.847549671357 113.6918768047353 H 0.0 **** 0.06
20593 H 81.54970552371483 48.040885228757645 111.9819353392177 H 0.0 **** 0.06
20594 H 82.73728965710136 49.14465339179296 112.71821023033397 H 0.0 **** 0.06
20595 H 81.02225328019112 49.242875305256746 113.18489913893302 H 0.0 **** 0.06
20596 C 129.81050839158985 2.93440086652555 24.755656521341947 C 0.0 **** -0.24
20597 H 130.483332457467 2.6912172981911056 23.933547908478715 H 0.0 **** 0.06
20598 H 130.34910676693 2.858964774462322 25.70049897733668 H 0.0 **** 0.06
20599 H 128.97371630885868 2.2362791791095447 24.757927733125626 H 0.0 **** 0.06
20600 H 129.4356705277047 3.950166389989647 24.63072042072308 H 0.0 **** 0.06
20601 C 43.31356060378471 35.54900483933588 8.727646907129326 C 0.0 **** -0.24
20602 H 42.66485372692284 36.270603236318266 8.231421970683812 H 0.0 **** 0.06
20603 H 44.35405670774378 35.85065149268945 8.60509389400994 H 0.0 **** 0.06
20604 H 43.165692038708244 34.56383845744104 8.285075830519418 H 0.0 **** 0.06
20605 H 43.06898466041616 35.51061905737217 9.789686102838232 H 0.0 **** 0.06
20606 C 33.99678762043089 37.30215808685649 101.62723420914062 C 0.0 **** -0.24
20607 H 34.30528321061278 38.33064205641754 101.81711653804635 H 0.0 **** 0.06
20608 H 34.31861853192131 36.66781293126884 102.4529194593122 H 0.0 **** 0.06
20609 H 34.449935448877966 36.95267303794942 100.7000933027487 H 0.0 **** 0.06
20610 H 32.91070207374065 37.260176776043 101.53900799877006 H 0.0 **** 0.06
20611 C 38.918764233485945 70.23839185115494 19.92676138643889 C 0.0 **** -0.24
20612 H 39.577477305181446 69.40112096068358 19.69652976589323 H 0.0 **** 0.06
20613 H 38.33031182774397 70.49037502797295 19.043567531476263 H 0.0 **** 0.06
20614 H 39.51657552188982 71.09961992001831 20.2238285563186 H 0.0 **** 0.06
20615 H 38.25043423410807 69.96088513787718 20.741544837501905 H 0.0 **** 0.06
20616 C 59.98503235505754 90.41615087899012 131.36976488127266 C 0.0 **** -0.24
20617 H 59.485183516293034 89.49845266403531 131.06201478321844 H 0.0 **** 0.06
20618 H 59.835138970324664 90.56951762727923 132.43888214202082 H 0.0 **** 0.06
20619 H 59.5669695625281 91.25995690758933 130.81981306356022 H 0.0 **** 0.06
20620 H 61.05087196446894 90.3377410206603 131.1593514650072 H 0.0 **** 0.06
20621 C 104.33614341692001 42.98778807682113 104.27782732344703 C 0.0 **** -0.24
20622 H 103.89145234157662 43.955590175892105 104.51300402380333 H 0.0 **** 0.06
20623 H 103.96877342815634 42.23891497821684 104.97981197877972 H 0.0 **** 0.06
20624 H 105.42145798984424 43.05888887742 104.35582770537872 H 0.0 **** 0.06
20625 H 104.06291905543914 42.69997730747998 103.26239121313904 H 0.0 **** 0.06
20626 C 94.73234756523458 17.96709343436367 130.83947294832626 C 0.0 **** -0.24
20627 H 95.36885667401641 17.412880147880948 130.1477620458943 H 0.0 **** 0.06
20628 H 95.0640937679646 17.78553082719641 131.86152016605342 H 0.0 **** 0.06
20629 H 93.6999837054155 17.63542013319458 130.72604557347034 H 0.0 **** 0.06
20630 H 94.79830966514267 19.03269077516535 130.6186735062763 H 0.0 **** 0.06
20631 C 40.661013665989636 7.529789774846417 120.83593649918606 C 0.0 **** -0.24
20632 H 40.52330902551459 8.470609153240208 120.30369091863425 H 0.0 **** 0.06
20633 H 41.67567688029075 7.164355180468764 120.67222558554917 H 0.0 **** 0.06
20634 H 39.94656705805807 6.794797650860438 120.46587074763107 H 0.0 **** 0.06
20635 H 40.49943088795215 7.68865621854734 121.90272541000591 H 0.0 **** 0.06
20636 C 113.98888374544484 123.8222362499638 136.96815085054146 C 0.0 **** -0.24
20637 H 114.90092954230406 124.24774202922939 137.38772014878919 H 0.0 **** 0.06
20638 H 113.17896819547013 124.54656794623527 137.05207603848197 H 0.0 **** 0.06
20639 H 113.72612798029402 122.91680865317397 137.51498933311464 H 0.0 **** 0.06
20640 H 114.15242052460866 123.57850687621928 135.91806665888117 H 0.0 **** 0.06
20641 C 67.96544480439695 12.041167130909926 87.91587828174045 C 0.0 **** -0.24
20642 H 68.65795737034063 12.598599179592497 87.2849353901651 H 0.0 **** 0.06
20643 H 66.96917543969167 12.067037965780997 87.4726377285376 H 0.0 **** 0.06
20644 H 67.9343645287376 12.490546929892602 88.90841285109519 H 0.0 **** 0.06
20645 H 68.3006316202846 11.00649264085655 87.99657289543197 H 0.0 **** 0.06
20646 C 56.15365382847284 76.68904959147727 96.12886827772724 C 0.0 **** -0.24
20647 H 56.63926211346785 77.07444101350649 95.23285819726777 H 0.0 **** 0.06
20648 H 55.730795797588996 75.70668605040711 95.91909218475176 H 0.0 **** 0.06
20649 H 55.359324583211645 77.36999455029101 96.43321846525042 H 0.0 **** 0.06
20650 H 56.88707088843188 76.60534409350902 96.93154935927579 H 0.0 **** 0.06
20651 C 7.313807441969381 126.3796744819421 30.76407070227313 C 0.0 **** -0.24
20652 H 7.041779385287093 126.18675240056325 29.726472101622107 H 0.0 **** 0.06
20653 H 8.297794995922423 125.9562778983486 30.966236230443144 H 0.0 **** 0.06
20654 H 6.577846857191982 125.91882770633141 31.423177935248034 H 0.0 **** 0.06
20655 H 7.336431796500808 127.45492731364337 30.939728102059547 H 0.0 **** 0.06
20656 C 48.1627891001383 9.06232535255597 29.08539872409125 C 0.0 **** -0.24
20657 H 48.821161741049366 8.252890702876396 29.40086199918389 H 0.0 **** 0.06
20658 H 48.08474574825584 9.062537440218907 27.997782388384337 H 0.0 **** 0.06
20659 H 48.57310764854901 10.014860917906734 29.42083389225124 H 0.0 **** 0.06
20660 H 47.174589689652436 8.917398724994115 29.521482708490055 H 0.0 **** 0.06
20661 C 106.34397324105322 105.81521343637303 126.99994737808663 C 0.0 **** -0.24
20662 H 107.3098670287792 106.25204793868141 127.25269398950994 H 0.0 **** 0.06
20663 H 105.73578235566748 105.73098254243185 127.90125871344767 H 0.0 **** 0.06
20664 H 106.49460231056236 104.82527508135271 126.56844878765136 H 0.0 **** 0.06
20665 H 105.8349594641337 106.45254346199586 126.27579577219734 H 0.0 **** 0.06
20666 C 109.77949605112073 29.52462226142339 52.92275249763274 C 0.0 **** -0.24
20667 H 109.48678885407597 29.48520021440038 53.97156154627619 H 0.0 **** 0.06
20668 H 109.07153116537744 30.143918136888416 52.37089431292334 H 0.0 **** 0.06
20669 H 109.78105837341661 28.516634953703885 52.50726695668668 H 0.0 **** 0.06
20670 H 110.77842121428341 29.953317081750953 52.84049470208656 H 0.0 **** 0.06
20671 C 115.57965254383461 95.53881677192578 0.9860306920214157 C 0.0 **** -0.24
20672 H 116.43409067346278 94.96750460570127 0.6216490160965691 H 0.0 **** 0.06
20673 H 115.922289685133 96.28896369325616 1.6996464894414771 H 0.0 **** 0.06
20674 H 114.87590561368944 94.86611541393927 1.4765948761717027 H 0.0 **** 0.06
20675 H 115.08769061886036 96.03124250564125 0.14726050875282226 H 0.0 **** 0.06
20676 C 60.87614248781398 69.07677850226892 100.56748944711507 C 0.0 **** -0.24
20677 H 61.71136788855989 68.40670433553667 100.36308246122366 H 0.0 **** 0.06
20678 H 60.74724466376114 69.17699080947747 101.6454560201347 H 0.0 **** 0.06
20679 H 59.966531326421716 68.66896677611682 100.127876958576 H 0.0 **** 0.06
20680 H 61.08205612875054 70.05486392996893 100.13258654461939 H 0.0 **** 0.06
20681 C 9.255344011696717 133.34869722169822 28.454432275172394 C 0.0 **** -0.24
20682 H 8.931644964628223 134.38945185283077 28.48224981295084 H 0.0 **** 0.06
20683 H 9.282452924447838 133.0048733990226 27.42001437709149 H 0.0 **** 0.06
20684 H 8.55689209129228 132.73636518890524 29.023564415552187 H 0.0 **** 0.06
20685 H 10.250857399727195 133.26759700778285 28.891166660571287 H 0.0 **** 0.06
20686 C 88.59838511531294 114.4659829507176 132.08565675647074 C 0.0 **** -0.24
20687 H 89.59432400411913 114.86710052557524 132.2682119281083 H 0.0 **** 0.06
20688 H 88.28713315164342 113.86345128541626 132.93959932910735 H 0.0 **** 0.06
20689 H 88.61465868377218 113.84581773323148 131.18929391327194 H 0.0 **** 0.06
20690 H 87.89576904959063 115.28747316611904 131.94602313625063 H 0.0 **** 0.06
20691 C 120.27081428802045 124.95306822801268 52.93833856834556 C 0.0 **** -0.24
20692 H 120.43541738654997 125.21472443333087 51.89316350888754 H 0.0 **** 0.06
20693 H 120.82931111450023 125.6377688331788 53.57646977009966 H 0.0 **** 0.06
20694 H 120.61059199237309 123.93165386928472 53.11477542105973 H 0.0 **** 0.06
20695 H 119.20742131897647 125.02602779920954 53.167790932524895 H 0.0 **** 0.06
20696 C 94.93301296065694 79.72151675805509 42.76315475275484 C 0.0 **** -0.24
20697 H 94.01478240018422 79.16368955877687 42.575437990642 H 0.0 **** 0.06
20698 H 95.5311825081246 79.75100439982776 41.852003958987666 H 0.0 **** 0.06
20699 H 95.4997330699188 79.23309881098498 43.555467986221686 H 0.0 **** 0.06
20700 H 94.68353439488887 80.7378264610557 43.06750665197313 H 0.0 **** 0.06
20701 C 16.519719027705108 2.909456771879718 5.451574954513973 C 0.0 **** -0.24
20702 H 16.848329835471468 3.1539277757805166 6.4620787707611385 H 0.0 **** 0.06
20703 H 15.93211381052258 3.735550157812895 5.051077902631249 H 0.0 **** 0.06
20704 H 15.908129108378304 2.0074414418754714 5.478149185091354 H 0.0 **** 0.06
20705 H 17.389892557904908 2.7408305099302765 4.817407579771896 H 0.0 **** 0.06
20706 C 73.77439365148751 109.34483829609238 120.59180123292532 C 0.0 **** -0.24
20707 H 73.58147460713948 110.32749595396086 121.02109855011116 H 0.0 **** 0.06
20708 H 74.02605763385066 108.64418432109164 121.38841804403904 H 0.0 **** 0.06
20709 H 74.60501042702967 109.41188525858699 119.88970330208042 H 0.0 **** 0.06
20710 H 72.88405699287858 108.99570798400153 120.06819283755266 H 0.0 **** 0.06
20711 C 71.17499539256329 81.98145698339044 35.154789438484585 C 0.0 **** -0.24
20712 H 70.12926434098323 82.28490831892708 35.202127648481266 H 0.0 **** 0.06
20713 H 71.30844888960192 81.26338747761199 34.34487865915231 H 0.0 **** 0.06
20714 H 71.46198923530125 81.52014464679172 36.10007011281858 H 0.0 **** 0.06
20715 H 71.79937977902725 82.85568626317584 34.97262651769879 H 0.0 **** 0.06
20716 C 128.37729773784807 13.6382090410536 51.569681624504724 C 0.0 **** -0.24
20717 H 127.89180701165635 14.587471900732865 51.346023893552015 H 0.0 **** 0.06
20718 H 128.139448143782 12.915553694239637 50.788784124559754 H 0.0 **** 0.06
20719 H 128.02250382670218 13.266436250266246 52.53040129585675 H 0.0 **** 0.06
20720 H 129.4571294671008 13.783280789885232 51.61384868427788 H 0.0 **** 0.06
20721 C 62.06894090895233 36.3233366009132 1.4067143111563496 C 0.0 **** -0.24
20722 H 62.32160292820012 36.62934171734954 0.39133120508506636 H 0.0 **** 0.06
20723 H 61.03558600690687 36.59320693715808 1.6215273679825941 H 0.0 **** 0.06
20724 H 62.731359417184194 36.825656858746406 2.1124891996220754 H 0.0 **** 0.06
20725 H 62.190118979907766 35.243654023478925 1.500343997698792 H 0.0 **** 0.06
20726 C 47.16749242655874 30.461471095524445 96.21109381280257 C 0.0 **** -0.24
20727 H 47.968624192257025 30.89016118654041 96.81309859419419 H 0.0 **** 0.06
20728 H 46.91029725540713 31.149659790564954 95.40598759701807 H 0.0 **** 0.06
20729 H 46.2923313776697 30.292903549227162 96.8386622836065 H 0.0 **** 0.06
20730 H 47.499047732924964 29.51348150721762 95.787513976272 H 0.0 **** 0.06
20731 C 87.15073057181897 86.11623998812678 126.07330891449476 C 0.0 **** -0.24
20732 H 86.12510350390353 85.78915921880207 125.90166579226698 H 0.0 **** 0.06
20733 H 87.69062543036594 85.34508976965625 126.62378234170126 H 0.0 **** 0.06
20734 H 87.1452482212278 87.03981681630603 126.65143849252833 H 0.0 **** 0.06
20735 H 87.64102870510662 86.29068374399299 125.11529262951822 H 0.0 **** 0.06
20736 C 29.657291598481223 80.41884332424215 8.960598534927641 C 0.0 **** -0.24
20737 H 28.763013124319983 79.95064507100625 8.54929515698629 H 0.0 **** 0.06
20738 H 29.37252917781163 81.10901659856484 9.754482819634347 H 0.0 **** 0.06
20739 H 30.176373784065362 80.96470406904581 8.172237049427821 H 0.0 **** 0.06
20740 H 30.316475241939642 79.65059594276721 9.36589964314048 H 0.0 **** 0.06
20741 C 124.5066135668071 25.909146049948035 58.51639607997194 C 0.0 **** -0.24
20742 H 123.61653918263485 25.688670868060342 57.92791982528006 H 0.0 **** 0.06
20743 H 124.26346515937588 26.65102888306589 59.27789449458653 H 0.0 **** 0.06
20744 H 125.2856069021578 26.30217858099641 57.86230745996947 H 0.0 **** 0.06
20745 H 124.86019982688886 24.997004660967704 58.99564532647716 H 0.0 **** 0.06
20746 C 125.16567930526011 102.26460605295739 129.63619383252575 C 0.0 **** -0.24
20747 H 124.71867354577864 102.79913170409196 130.47522202388325 H 0.0 **** 0.06
20748 H 126.24893252644819 102.25033915323249 129.75174436169155 H 0.0 **** 0.06
20749 H 124.90444828150069 102.76882127305953 128.70548848012558 H 0.0 **** 0.06
20750 H 124.78738347495522 101.24261984074474 129.61375487020817 H 0.0 **** 0.06
20751 C 30.62118998336186 18.78049752816888 113.68341088720845 C 0.0 **** -0.24
20752 H 31.408740929308095 18.16636924772566 113.24717470630662 H 0.0 **** 0.06
20753 H 29.66880201857066 18.25476603335558 113.61273106683964 H 0.0 **** 0.06
20754 H 30.555539670316136 19.72557017499676 113.14445190606554 H 0.0 **** 0.06
20755 H 30.851073615624756 18.97568126975544 114.73162649407769 H 0.0 **** 0.06
20756 C 66.10524242936175 35.046787113512096 71.31263018636855 C 0.0 **** -0.24
20757 H 66.90692519785422 34.42647618932682 70.91161127545939 H 0.0 **** 0.06
20758 H 66.31195108910771 35.27577528932051 72.35825728318764 H 0.0 **** 0.06
20759 H 65.15892027627221 34.51058494331022 71.2377789869524 H 0.0 **** 0.06
20760 H 66.04352073894448 35.973947904190766 70.74200911534548 H 0.0 **** 0.06
20761 C 117.21149319535382 20.503932199844336 61.331152793190824 C 0.0 **** -0.24
20762 H 117.51904911751967 21.021491286060872 60.4223656781671 H 0.0 **** 0.06
20763 H 116.9873988377635 19.462873624825278 61.09710395970485 H 0.0 **** 0.06
20764 H 116.3232724245006 20.984241673193864 61.73964595056256 H 0.0 **** 0.06
20765 H 118.01776141740675 20.546491724668698 62.063671953051255 H 0.0 **** 0.06
20766 C 104.40162603718889 29.770205402895513 4.632717445379171 C 0.0 **** -0.24
20767 H 104.40752304125328 30.847121386618497 4.462302408957726 H 0.0 **** 0.06
20768 H 104.98254641492869 29.541413026643056 5.525906452200786 H 0.0 **** 0.06
20769 H 104.84152338982625 29.26495526021131 3.772514153289677 H 0.0 **** 0.06
20770 H 103.37484474731798 29.429795464264842 4.767514807387897 H 0.0 **** 0.06
20771 C 56.46415558813203 42.89148378066423 41.056902634746876 C 0.0 **** -0.24
20772 H 57.09668056848567 42.230819005234906 40.46502916099416 H 0.0 **** 0.06
20773 H 57.0899014596672 43.5192676404329 41.692728614806754 H 0.0 **** 0.06
20774 H 55.79770872036937 42.294799571269124 41.67958520232486 H 0.0 **** 0.06
20775 H 55.87398207330581 43.52152305233736 40.391699820547416 H 0.0 **** 0.06
20776 C 30.04075443894419 92.07937257713269 71.77499231402271 C 0.0 **** -0.24
20777 H 29.125781764386034 91.59046847210911 71.43916068409663 H 0.0 **** 0.06
20778 H 30.62396729710025 91.38232027406758 72.37630910863714 H 0.0 **** 0.06
20779 H 29.78577630253443 92.95274464671945 72.37626138537206 H 0.0 **** 0.06
20780 H 30.62498810468327 92.39169971481238 70.90986989020257 H 0.0 **** 0.06
20781 C 71.5425493492231 115.86341464067436 68.14093252345546 C 0.0 **** -0.24
20782 H 70.84045278479498 116.20240395215023 67.37903244206906 H 0.0 **** 0.06
20783 H 71.57484948541625 116.59001903836605 68.95254498899112 H 0.0 **** 0.06
20784 H 72.53468843120146 115.76285020267107 67.7009871937204 H 0.0 **** 0.06
20785 H 71.21757401439609 114.897791835117 68.52923746047075 H 0.0 **** 0.06
20786 C 91.01860072193928 82.74109410619133 95.61303121598525 C 0.0 **** -0.24
20787 H 90.19100839665768 83.011201841753 96.27011712127258 H 0.0 **** 0.06
20788 H 90.93600283553057 81.68970571134162 95.33897636904821 H 0.0 **** 0.06
20789 H 91.96316355967288 82.9093847770298 96.13112328922243 H 0.0 **** 0.06
20790 H 90.98324651215482 83.35545123864165 94.71368788458837 H 0.0 **** 0.06
20791 C 50.188942614868324 59.67045080025282 53.535533217677 C 0.0 **** -0.24
20792 H 51.24735824481351 59.52034228572957 53.749640372861165 H 0.0 **** 0.06
20793 H 49.73858170345373 60.265405496322515 54.33065588952451 H 0.0 **** 0.06
20794 H 49.68978244337656 58.70370588854878 53.47617479262453 H 0.0 **** 0.06
20795 H 50.08202833331879 60.193568409034654 52.58489164586527 H 0.0 **** 0.06
20796 C 31.65261227052497 8.493569623775993 109.79585769721481 C 0.0 **** -0.24
20797 H 32.609864933976525 8.770404145402036 109.35328218713256 H 0.0 **** 0.06
20798 H 30.871288019240907 8.556454163685206 109.03817502649801 H 0.0 **** 0.06
20799 H 31.42132887458294 9.174567331256245 110.61460011777413 H 0.0 **** 0.06
20800 H 31.70949528997707 7.473829032407348 110.17606486435443 H 0.0 **** 0.06
20801 C 64.99466719229116 39.014811798007656 100.4332505602835 C 0.0 **** -0.24
20802 H 65.49928676792157 39.62370627700349 99.68279224607124 H 0.0 **** 0.06
20803 H 64.70378431388036 39.64387559660247 101.27477178298183 H 0.0 **** 0.06
20804 H 65.67006964395983 38.23183173898619 100.78040167032304 H 0.0 **** 0.06
20805 H 64.10640476395929 38.55996584895654 99.99457403533962 H 0.0 **** 0.06
20806 C 17.907459073341215 45.855739122700356 125.05447787638559 C 0.0 **** -0.24
20807 H 18.52684408365218 46.36859115212225 124.31882438821722 H 0.0 **** 0.06
20808 H 18.521091066147164 45.15114578781507 125.61686308773338 H 0.0 **** 0.06
20809 H 17.108442465137898 45.31736804413373 124.54468860039802 H 0.0 **** 0.06
20810 H 17.474997333565796 46.58655568174417 125.73790531695313 H 0.0 **** 0.06
20811 C 10.518166227248322 114.51023045008603 103.97068551541449 C 0.0 **** -0.24
20812 H 10.013972976117604 113.9355103055482 104.74735208823365 H 0.0 **** 0.06
20813 H 10.595405465943578 115.5517487483541 104.28175426640871 H 0.0 **** 0.06
20814 H 9.945789034518857 114.44846021864714 103.04428715558531 H 0.0 **** 0.06
20815 H 11.51658957159027 114.1042880181422 103.80752106885762 H 0.0 **** 0.06
20816 C 116.07731151316918 59.690321620044415 9.737894396270008 C 0.0 **** -0.24
20817 H 115.44141894048798 59.60312332959461 10.618736121026501 H 0.0 **** 0.06
20818 H 117.02333139620845 60.15430866821214 10.016656758557815 H 0.0 **** 0.06
20819 H 115.57740757748343 60.3050173760723 8.988689291523798 H 0.0 **** 0.06
20820 H 116.26503081172493 58.69864149577188 9.326641379541599 H 0.0 **** 0.06
20821 C 21.18342438489327 82.41475305810059 36.59833840889874 C 0.0 **** -0.24
20822 H 22.202834304624105 82.02979385790648 36.56953047525741 H 0.0 **** 0.06
20823 H 20.555911872448462 81.83354512742046 35.92172736186879 H 0.0 **** 0.06
20824 H 21.180829084677214 83.46015580300538 36.28933608048399 H 0.0 **** 0.06
20825 H 20.793684199143286 82.33495437635325 37.613460494812955 H 0.0 **** 0.06
20826 C 79.22673662268807 121.19585110892156 101.77862276363258 C 0.0 **** -0.24
20827 H 78.57948782219484 120.36645533279615 101.49346193071676 H 0.0 **** 0.06
20828 H 79.49928864523463 121.76507675398558 100.88961565084485 H 0.0 **** 0.06
20829 H 80.12831923634675 120.80704160060975 102.25120184083012 H 0.0 **** 0.06
20830 H 78.6996764623214 121.84379678514317 102.47850848314292 H 0.0 **** 0.06
20831 C 6.766764940384075 56.04158271906486 107.77049530993078 C 0.0 **** -0.24
20832 H 6.834488026213215 57.09623724336852 108.03583931722893 H 0.0 **** 0.06
20833 H 5.795582207278809 55.84333865916729 107.31524534584815 H 0.0 **** 0.06
20834 H 6.8784991786949625 55.433340328874735 108.66842500945303 H 0.0 **** 0.06
20835 H 7.557806006571585 55.79272271452638 107.06270168398581 H 0.0 **** 0.06
20836 C 52.74072048662225 11.645054159428497 89.05516913488412 C 0.0 **** -0.24
20837 H 53.18102839643349 12.630406040295565 88.90443874718005 H 0.0 **** 0.06
20838 H 51.66749605784942 11.749137971369677 89.21882734233009 H 0.0 **** 0.06
20839 H 53.19712216452034 11.172227812034443 89.92370855747828 H 0.0 **** 0.06
20840 H 52.91524584992551 11.030227052205191 88.17233586824693 H 0.0 **** 0.06
20841 C 22.813267292500427 27.30338902420013 96.98387327017569 C 0.0 **** -0.24
20842 H 22.874163198027645 26.517328417086297 96.23132263095879 H 0.0 **** 0.06
20843 H 23.78582648202135 27.425319666414936 97.46109609100178 H 0.0 **** 0.06
20844 H 22.071680856619736 27.029792452637118 97.73481838455172 H 0.0 **** 0.06
20845 H 22.52072423674477 28.239022693729446 96.50866258085186 H 0.0 **** 0.06
20846 C 109.59983417491884 8.453349867072383 107.46056922062901 C 0.0 **** -0.24
20847 H 110.02986991843753 9.454931615344254 107.46345414627001 H 0.0 **** 0.06
20848 H 108.75552060160425 8.423277445637009 106.77205539491877 H 0.0 **** 0.06
20849 H 109.25989354784952 8.201076511120217 108.46428955954762 H 0.0 **** 0.06
20850 H 110.35530055225595 7.735088166968627 107.14060861912681 H 0.0 **** 0.06
20851 C 67.59717592126185 19.545376136277874 137.03406247990867 C 0.0 **** -0.24
20852 H 66.67756598067922 19.112465760139834 136.63940026990588 H 0.0 **** 0.06
20853 H 67.81873338174049 20.47166456791716 136.50478461840942 H 0.0 **** 0.06
20854 H 68.41803600939697 18.84201726336766 136.89700761248895 H 0.0 **** 0.06
20855 H 67.47254006805906 19.754995435977833 138.09718513951466 H 0.0 **** 0.06
20856 C 69.65785685191432 73.9209166658759 69.05708459136741 C 0.0 **** -0.24
20857 H 69.85785590310005 74.60203812975647 69.88417768678482 H 0.0 **** 0.06
20858 H 69.36744512243496 74.49453278256533 68.17667522175543 H 0.0 **** 0.06
20859 H 68.85041967301785 73.24253767452672 69.33232303184829 H 0.0 **** 0.06
20860 H 70.55669040094378 73.34554264865164 68.83541354465845 H 0.0 **** 0.06
20861 C 7.337169735224762 56.97157918632226 64.55900311739964 C 0.0 **** -0.24
20862 H 6.375503669683383 56.98614024653608 65.0714242254407 H 0.0 **** 0.06
20863 H 7.413997572735212 57.84084756228174 63.90593265222776 H 0.0 **** 0.06
20864 H 7.417756100486315 56.0617994357015 63.96351278383668 H 0.0 **** 0.06
20865 H 8.141192283306935 56.996561548696945 65.2952454234196 H 0.0 **** 0.06
20866 C 93.36862080634457 64.15164278547161 116.9608393113696 C 0.0 **** -0.24
20867 H 92.88364977852872 64.89554680900824 117.5921521684148 H 0.0 **** 0.06
20868 H 93.94053241950417 63.462714801551215 117.58335232623534 H 0.0 **** 0.06
20869 H 94.03784829252555 64.64954649804329 116.2602056982775 H 0.0 **** 0.06
20870 H 92.61101611539621 63.59689220758284 116.4069864362412 H 0.0 **** 0.06
20871 C 41.74402794405847 9.629123518359165 53.25815850116109 C 0.0 **** -0.24
20872 H 42.62349633113712 10.157523197516412 52.88815949431833 H 0.0 **** 0.06
20873 H 41.758260535129125 9.61933334338039 54.348508305920376 H 0.0 **** 0.06
20874 H 41.75259800625139 8.604783355446045 52.884420773157146 H 0.0 **** 0.06
20875 H 40.84378884718194 10.135354871002278 52.910757558737316 H 0.0 **** 0.06
20876 C 58.71052913977303 68.3591174635055 117.02053765440706 C 0.0 **** -0.24
20877 H 58.429226489845476 69.11688558102031 117.75268819948346 H 0.0 **** 0.06
20878 H 57.979453343961 67.55130590238718 117.03382986641179 H 0.0 **** 0.06
20879 H 59.695491309411025 67.96389086298231 117.26834908439866 H 0.0 **** 0.06
20880 H 58.739331938894225 68.8078611980296 116.02717540351233 H 0.0 **** 0.06
20881 C 52.57029610381073 102.39831550951905 114.39581980511954 C 0.0 **** -0.24
20882 H 51.56936609943932 102.363031895561 114.82748091830808 H 0.0 **** 0.06
20883 H 52.49553437608358 102.42604458592919 113.30914515125923 H 0.0 **** 0.06
20884 H 53.127275736106526 101.5121162084846 114.7002808991266 H 0.0 **** 0.06
20885 H 53.08571023018595 103.29108064798413 114.74864087058018 H 0.0 **** 0.06
20886 C 110.86508312910917 13.442443670281804 44.74061527490707 C 0.0 **** -0.24
20887 H 111.54795314729282 14.191656685846588 45.140850761009915 H 0.0 **** 0.06
20888 H 111.30883454439993 12.979090147496112 43.86016755025909 H 0.0 **** 0.06
20889 H 109.9238516789847 13.919586749212904 44.46594102370591 H 0.0 **** 0.06
20890 H 110.67842513469046 12.680053303443195 45.49750616760775 H 0.0 **** 0.06
20891 C 130.03271908188773 6.341266033689678 7.962076846093236 C 0.0 **** -0.24
20892 H 129.69838146743092 5.364825589168497 8.31290228514419 H 0.0 **** 0.06
20893 H 130.9084835195108 6.217867069384262 7.324363397291716 H 0.0 **** 0.06
20894 H 130.290126340905 6.96614011636462 8.817117156586335 H 0.0 **** 0.06
20895 H 129.2328121067339 6.816643724521565 7.393100561893853 H 0.0 **** 0.06
20896 C 39.895248491527866 111.74159333465082 37.16578726642302 C 0.0 **** -0.24
20897 H 39.9935259239499 110.87805418886086 37.82285020472775 H 0.0 **** 0.06
20898 H 38.96581984659397 112.26496589570269 37.390581898949335 H 0.0 **** 0.06
20899 H 39.883397145103515 111.40833607260771 36.12764120544512 H 0.0 **** 0.06
20900 H 40.73873594563409 112.41414266318378 37.32206388837969 H 0.0 **** 0.06
20901 C 48.48836387915429 14.302659354129418 1.707589107206445 C 0.0 **** -0.24
20902 H 47.75866833513891 14.734352988664 1.022616789413405 H 0.0 **** 0.06
20903 H 48.79600043527188 13.323657429684403 1.3389645240781647 H 0.0 **** 0.06
20904 H 48.03999443817315 14.195449478571163 2.6953263957695413 H 0.0 **** 0.06
20905 H 49.35750169302116 14.956684192117393 1.7716905464729393 H 0.0 **** 0.06
20906 C 130.06338603133793 32.66565448216649 122.70737687881774 C 0.0 **** -0.24
20907 H 129.2928451162537 33.20460594376948 122.15570025001666 H 0.0 **** 0.06
20908 H 129.92673599456322 32.83118623424437 123.7767721011138 H 0.0 **** 0.06
20909 H 131.0464965682729 33.026588273423215 122.40541243415694 H 0.0 **** 0.06
20910 H 129.98518233610923 31.59966316624576 122.49229599500165 H 0.0 **** 0.06
20911 C 80.14958760280699 91.29581965717989 8.502271222873762 C 0.0 **** -0.24
20912 H 80.75692666443904 91.70887057763294 9.308201929940786 H 0.0 **** 0.06
20913 H 80.7103781471699 91.33611821890129 7.568692606204131 H 0.0 **** 0.06
20914 H 79.23368715193469 91.87814638625922 8.402456399020938 H 0.0 **** 0.06
20915 H 79.89919511189241 90.26032694981235 8.73134431932834 H 0.0 **** 0.06
20916 C 96.21340219329782 83.35008853259774 40.15568452632121 C 0.0 **** -0.24
20917 H 96.16168038340682 84.21093444092463 40.82345792363981 H 0.0 **** 0.06
20918 H 95.3154264812396 82.74383024431381 40.27512728960491 H 0.0 **** 0.06
20919 H 97.09078038453096 82.75218336851822 40.40277357300613 H 0.0 **** 0.06
20920 H 96.28693626716883 83.69419144399757 39.12419144645614 H 0.0 **** 0.06
20921 C 113.60325948848936 79.99291542329847 117.85004485706838 C 0.0 **** -0.24
20922 H 112.69062009526237 80.1434546822213 118.42675131109135 H 0.0 **** 0.06
20923 H 113.91628807984648 78.95161728227818 117.9296210368334 H 0.0 **** 0.06
20924 H 114.38937400226507 80.63998039534877 118.23982040505842 H 0.0 **** 0.06
20925 H 113.41611305923448 80.23821142271062 116.80412937467787 H 0.0 **** 0.06
20926 C 89.58453795984383 29.943645065614177 123.12912739059743 C 0.0 **** -0.24
20927 H 90.1906505391321 29.515390943256193 123.92714429938394 H 0.0 **** 0.06
20928 H 88.52785787134496 29.83130520459909 123.37659681519085 H 0.0 **** 0.06
20929 H 89.79570707845227 29.424432847861112 122.19425074570131 H 0.0 **** 0.06
20930 H 89.82172267555774 31.00184981921717 123.0192493988352 H 0.0 **** 0.06
20931 C 108.91252428872278 35.24375184747353 70.32948031749322 C 0.0 **** -0.24
20932 H 108.79348396200908 35.466980203479864 71.38981685529251 H 0.0 **** 0.06
20933 H 108.98974713588916 36.176811734340305 69.76942314205655 H 0.0 **** 0.06
20934 H 108.0490047461123 34.67848289372057 69.97808439009407 H 0.0 **** 0.06
20935 H 109.81772250341314 34.654849649163225 70.18130320449723 H 0.0 **** 0.06
20936 C 58.01389919837406 124.9982767075006 91.60722132556928 C 0.0 **** -0.24
20937 H 57.95196165896108 125.65519354605004 92.47552606881362 H 0.0 **** 0.06
20938 H 59.0607814697089 124.83343571206379 91.35091476758149 H 0.0 **** 0.06
20939 H 57.50041899820006 125.4611164181323 90.76503517959857 H 0.0 **** 0.06
20940 H 57.54184996556597 124.04399626532366 91.84091005198135 H 0.0 **** 0.06
20941 C 66.35756183119285 12.42135770024429 20.73657021882542 C 0.0 **** -0.24
20942 H 67.43665522742779 12.427117972228952 20.88602343395769 H 0.0 **** 0.06
20943 H 65.9768666507512 13.441984578171802 20.793104247104452 H 0.0 **** 0.06
20944 H 65.88714736430774 11.813742196998966 21.509640521199003 H 0.0 **** 0.06
20945 H 66.12905726908697 12.00243079746151 19.75620701541152 H 0.0 **** 0.06
20946 C 14.992169254558291 55.081267651106714 60.16186875294545 C 0.0 **** -0.24
20947 H 14.939091223350033 56.13728143669975 60.427883224205004 H 0.0 **** 0.06
20948 H 15.542733578518266 54.9695510731991 59.228336029308906 H 0.0 **** 0.06
20949 H 13.983846392984105 54.686583756517095 60.03930585209173 H 0.0 **** 0.06
20950 H 15.503206245065485 54.53400247304258 60.95485623407819 H 0.0 **** 0.06
20951 C 112.18234863576612 123.15919918425163 58.75911342814847 C 0.0 **** -0.24
20952 H 112.8431297617883 124.00387655114201 58.95640142672562 H 0.0 **** 0.06
20953 H 111.4424193096252 123.08314636061509 59.55680051645504 H 0.0 **** 0.06
20954 H 112.76870181078999 122.24166060710706 58.719352432566666 H 0.0 **** 0.06
20955 H 111.6759017397608 123.30872469411963 57.805646219469 H 0.0 **** 0.06
20956 C 114.42015439755082 90.3897419262352 125.66885146333433 C 0.0 **** -0.24
20957 H 114.92987286735647 89.45190892994711 125.88774727273594 H 0.0 **** 0.06
20958 H 113.64325928204809 90.21555808810531 124.92530188850225 H 0.0 **** 0.06
20959 H 115.13938803632925 91.11157750456277 125.28164552275443 H 0.0 **** 0.06
20960 H 113.96990079349882 90.78000215107741 126.58203093586857 H 0.0 **** 0.06
20961 C 73.69505379279937 80.48083186986298 82.73310857449091 C 0.0 **** -0.24
20962 H 73.56557397240312 79.80271757821423 83.5769735362434 H 0.0 **** 0.06
20963 H 73.43333001315028 79.96422767911479 81.80916221278342 H 0.0 **** 0.06
20964 H 74.73298197737691 80.80802471203259 82.68648329821139 H 0.0 **** 0.06
20965 H 73.04585463817148 81.34797030599726 82.86174580486778 H 0.0 **** 0.06
20966 C 85.34777765551927 130.43896340034033 11.727062429115122 C 0.0 **** -0.24
20967 H 85.13278040990232 130.58266452346885 12.786232038660131 H 0.0 **** 0.06
20968 H 86.02464623639247 129.59410972468532 11.604848700511354 H 0.0 **** 0.06
20969 H 85.81277580612846 131.33886136919176 11.325470109729224 H 0.0 **** 0.06
20970 H 84.41865978890097 130.24104205458417 11.192214590127321 H 0.0 **** 0.06
20971 C 20.349518883921064 86.82073558407964 63.671646104207156 C 0.0 **** -0.24
20972 H 21.264239220813266 86.29297491404418 63.93972705539275 H 0.0 **** 0.06
20973 H 20.60189597371631 87.74667884542652 63.15474480792645 H 0.0 **** 0.06
20974 H 19.78483880661001 87.05192496562007 64.57546134671706 H 0.0 **** 0.06
20975 H 19.745907891346477 86.19223943943835 63.01755025067355 H 0.0 **** 0.06
20976 C 52.94871283291515 75.0487925736756 14.107265188795793 C 0.0 **** -0.24
20977 H 52.377335905236905 74.27762272319819 13.591318005049601 H 0.0 **** 0.06
20978 H 53.30048193613793 75.78407104912276 13.383557288711316 H 0.0 **** 0.06
20979 H 53.8029296300287 74.59369253698992 14.607909425367325 H 0.0 **** 0.06
20980 H 52.314029799636785 75.53843975509432 14.844796933178486 H 0.0 **** 0.06
20981 C 128.25907143208838 48.8249641663308 77.99339315155663 C 0.0 **** -0.24
20982 H 128.0215872529403 47.82046408158055 78.34463372162668 H 0.0 **** 0.06
20983 H 127.74621249569161 49.01034555386275 77.04938598280933 H 0.0 **** 0.06
20984 H 129.33541976842454 48.913185848165824 77.8469580487606 H 0.0 **** 0.06
20985 H 127.93178686795687 49.555098402501926 78.73453951921516 H 0.0 **** 0.06
20986 C 114.16593444900096 34.15777351467739 85.04703156981014 C 0.0 **** -0.24
20987 H 113.83560001744328 33.292525496034784 85.62194730338251 H 0.0 **** 0.06
20988 H 114.2290881644777 33.889570963704614 83.99282806812829 H 0.0 **** 0.06
20989 H 115.14620790502201 34.47645200623819 85.40182734878968 H 0.0 **** 0.06
20990 H 113.45195855009291 34.971878361859694 85.17346651157297 H 0.0 **** 0.06
20991 C 88.17873044305827 65.69613281360309 97.62449027544987 C 0.0 **** -0.24
20992 H 87.19878420599208 65.289016119301 97.37513423112455 H 0.0 **** 0.06
20993 H 88.19118890104181 65.9944838083874 98.67339617753416 H 0.0 **** 0.06
20994 H 88.38087034927055 66.56407302912922 96.99696633474059 H 0.0 **** 0.06
20995 H 88.94192744265061 64.93742011151733 97.45354173954091 H 0.0 **** 0.06
20996 C 61.113026863107194 91.82114965318576 102.44166311704564 C 0.0 **** -0.24
20997 H 61.738769403613304 91.52177619557744 103.28198319373288 H 0.0 **** 0.06
20998 H 61.37395998236968 91.2291039565282 101.56467574880645 H 0.0 **** 0.06
20999 H 61.27436563603783 92.87809871279467 102.2282630800313 H 0.0 **** 0.06
21000 H 60.06512338918759 91.65724131760288 102.69232905959643 H 0.0 **** 0.06
21001 C 62.26753220821453 55.34487756251387 90.96264645379864 C 0.0 **** -0.24
21002 H 62.00948141979838 55.2851808095497 92.0206007114326 H 0.0 **** 0.06
21003 H 61.3924262409177 55.097620242488375 90.36140819743619 H 0.0 **** 0.06
21004 H 63.06969388200082 54.640121027459216 90.7443188930162 H 0.0 **** 0.06
21005 H 62.59724068244577 56.35655124933555 90.72634213315727 H 0.0 **** 0.06
21006 C 25.009028984338592 125.83556534609147 64.11904315895329 C 0.0 **** -0.24
21007 H 24.251454149631584 125.62153960479725 64.8727496002925 H 0.0 **** 0.06
21008 H 24.83874943077401 126.83066275759091 63.706494813038844 H 0.0 **** 0.06
21009 H 24.94664447549026 125.095918405085 63.32028682671877 H 0.0 **** 0.06
21010 H 25.997566436826446 125.79481940191636 64.57501516849314 H 0.0 **** 0.06
21011 C 131.0258049897104 30.273916831496877 6.952586670590279 C 0.0 **** -0.24
21012 H 131.52808790218657 29.77830231188966 6.122433589484899 H 0.0 **** 0.06
21013 H 130.74589496423945 31.285175590276367 6.657069881637483 H 0.0 **** 0.06
21014 H 131.69907344938105 30.318361417449978 7.80933247675074 H 0.0 **** 0.06
21015 H 130.13109587088297 29.71347122801444 7.2235117072953585 H 0.0 **** 0.06
21016 C 36.556941132372145 62.9930880128382 62.508761930572604 C 0.0 **** -0.24
21017 H 37.63721293351972 62.95614191193583 62.650306610138685 H 0.0 **** 0.06
21018 H 36.267187531384366 63.99517893214136 62.19041500309842 H 0.0 **** 0.06
21019 H 36.05856247325681 62.752692894296715 63.44778959450397 H 0.0 **** 0.06
21020 H 36.26519491431873 62.27074544548503 61.746762983534865 H 0.0 **** 0.06
21021 C 68.15825132407114 29.808714761353734 87.91523150616464 C 0.0 **** -0.24
21022 H 67.4721887819041 30.413608301547775 88.5082028876964 H 0.0 **** 0.06
21023 H 68.1831462887248 28.79350098359997 88.31273539670167 H 0.0 **** 0.06
21024 H 69.15598136160298 30.242434179768125 87.96113562480963 H 0.0 **** 0.06
21025 H 67.81852437476093 29.784827824066994 86.88017448353332 H 0.0 **** 0.06
21026 C 86.43559561155489 35.00174100397879 6.375885538843619 C 0.0 **** -0.24
21027 H 86.46369578617472 34.03780493012226 6.882955199010297 H 0.0 **** 0.06
21028 H 85.60309679874082 35.590672438854995 6.761614174471305 H 0.0 **** 0.06
21029 H 86.30513669682311 34.846008096703486 5.304551399579736 H 0.0 **** 0.06
21030 H 87.37029663058033 35.533265933579514 6.555017680017812 H 0.0 **** 0.06
21031 C 36.09855798224593 130.3731129254769 5.1845669136144465 C 0.0 **** -0.24
21032 H 36.231052610899944 129.85175908251387 6.1322458549663565 H 0.0 **** 0.06
21033 H 35.3225426426723 131.1322457458843 5.294174059875161 H 0.0 **** 0.06
21034 H 35.802037797874455 129.65962568694255 4.41565742118695 H 0.0 **** 0.06
21035 H 37.03518516848086 130.84945927428927 4.8975831871927085 H 0.0 **** 0.06
21036 C 101.00616186685198 12.747136821721085 22.92732422193268 C 0.0 **** -0.24
21037 H 101.03153226123271 11.82340870241137 22.34961603762403 H 0.0 **** 0.06
21038 H 101.27558870219337 12.535835456082623 23.962500539669264 H 0.0 **** 0.06
21039 H 100.00150558644305 13.170094470763019 22.89160710957674 H 0.0 **** 0.06
21040 H 101.71461080771203 13.459156654091743 22.5054784453757 H 0.0 **** 0.06
21041 C 32.156680195946166 72.61109253580055 3.1015630122946902 C 0.0 **** -0.24
21042 H 31.44284990886358 73.41838693248704 2.9358036373813547 H 0.0 **** 0.06
21043 H 31.765532003372243 71.68780084183966 2.673735220264888 H 0.0 **** 0.06
21044 H 32.31486946028278 72.47915307201617 4.171258824438581 H 0.0 **** 0.06
21045 H 33.10320015512116 72.86089392879315 2.6223800783334354 H 0.0 **** 0.06
21046 C 44.581290052702116 91.37115879154587 8.992286207030872 C 0.0 **** -0.24
21047 H 44.845644859829235 90.33495270042445 8.783088930335396 H 0.0 **** 0.06
21048 H 43.593424389962024 91.5838382017007 8.583134667997228 H 0.0 **** 0.06
21049 H 45.31577361157713 92.03258736931525 8.531392228794061 H 0.0 **** 0.06
21050 H 44.57149990241561 91.53363364390225 10.069417151899643 H 0.0 **** 0.06
21051 C 135.4517099629624 98.27115563887983 101.85010487538395 C 0.0 **** -0.24
21052 H 135.82428192717398 99.04236005263495 101.17547166166749 H 0.0 **** 0.06
21053 H 134.3832444108447 98.4133226224472 102.00967284526509 H 0.0 **** 0.06
21054 H 135.97460276550711 98.33996951154866 102.80411527282564 H 0.0 **** 0.06
21055 H 135.6260176757921 97.28927913738592 101.41006576490119 H 0.0 **** 0.06
21056 C 42.11723256031574 0.09771850274583471 131.48762315449957 C 0.0 **** -0.24
21057 H 43.01574335082488 0.6926334541383028 131.32207664374283 H 0.0 **** 0.06
21058 H 42.391600309379065 -0.8537251017390588 131.94389773819046 H 0.0 **** 0.06
21059 H 41.62155379932252 -0.08531140904386803 130.53484215787026 H 0.0 **** 0.06
21060 H 41.4413308944357 0.6367789575904794 132.15111377607576 H 0.0 **** 0.06
21061 C 75.69992688590935 77.49140572187599 6.929945963556822 C 0.0 **** -0.24
21062 H 74.79366672298158 77.3607729047651 7.52069261936434 H 0.0 **** 0.06
21063 H 76.15140621679276 78.45502639594235 7.167438499279957 H 0.0 **** 0.06
21064 H 75.45084057910805 77.4570163598961 5.869947196506924 H 0.0 **** 0.06
21065 H 76.40459787306392 76.69330259959992 7.163965785050024 H 0.0 **** 0.06
21066 C 133.127896805918 8.342600153532747 68.85625136084201 C 0.0 **** -0.24
21067 H 132.54010413031466 8.91520026678133 68.13833077044518 H 0.0 **** 0.06
21068 H 133.61091987546877 7.509362957376634 68.34602244845337 H 0.0 **** 0.06
21069 H 132.4726826199348 7.959256658538784 69.63815108270944 H 0.0 **** 0.06
21070 H 133.88635242090731 8.986058191589727 69.30017907419057 H 0.0 **** 0.06
21071 C 110.35063030167285 95.82536152494909 134.47620966450967 C 0.0 **** -0.24
21072 H 110.65668841035335 96.44280730605048 135.3208907978456 H 0.0 **** 0.06
21073 H 110.4688956801684 96.39024079479073 133.55106437172282 H 0.0 **** 0.06
21074 H 109.30608703875411 95.53793701671836 134.5957821537458 H 0.0 **** 0.06
21075 H 110.97127991609517 94.92971734978855 134.43761348298204 H 0.0 **** 0.06
21076 C 21.201415521838072 25.70953013289011 14.844414948515748 C 0.0 **** -0.24
21077 H 21.806824325945115 24.90897149087354 14.418868099079475 H 0.0 **** 0.06
21078 H 20.883165105314276 26.38503727392299 14.049338277657284 H 0.0 **** 0.06
21079 H 21.79038308302708 26.26085617992294 15.577146718495726 H 0.0 **** 0.06
21080 H 20.324777264502202 25.281686156659475 15.330798501040363 H 0.0 **** 0.06
21081 C 100.34423299533407 46.889829967489106 134.3132402542004 C 0.0 **** -0.24
21082 H 100.29798988129643 46.37103367742793 135.27117557766235 H 0.0 **** 0.06
21083 H 101.35627109085146 47.25766786591464 134.14702896846705 H 0.0 **** 0.06
21084 H 99.64848186707829 47.72918549564116 134.32103461289668 H 0.0 **** 0.06
21085 H 100.07134679695339 46.20049393462898 133.51392176971623 H 0.0 **** 0.06
21086 C 106.00533280829814 52.016048929577494 28.33637820278389 C 0.0 **** -0.24
21087 H 106.1799452429229 53.09192217041715 28.334298711407428 H 0.0 **** 0.06
21088 H 106.95265134378438 51.49366625686167 28.47028116447143 H 0.0 **** 0.06
21089 H 105.55730670117758 51.71945728582949 27.387771283799395 H 0.0 **** 0.06
21090 H 105.33018783356398 51.75922820072367 29.15248629894512 H 0.0 **** 0.06
21091 C 118.09725274231877 38.96722177016452 80.97140182639842 C 0.0 **** -0.24
21092 H 118.02740407839343 37.884873692978935 81.07013263816141 H 0.0 **** 0.06
21093 H 118.13881730269605 39.23462611123768 79.91561616685065 H 0.0 **** 0.06
21094 H 119.00031497243941 39.3204843183181 81.47096596125694 H 0.0 **** 0.06
21095 H 117.22386966858204 39.43106245183748 81.43043877074405 H 0.0 **** 0.06
21096 C 52.67065726982641 136.77592990121198 34.65653599963326 C 0.0 **** -0.24
21097 H 53.4479643880843 136.66072652779883 33.901156037407844 H 0.0 **** 0.06
21098 H 51.69827157736114 136.5611983473269 34.21192769658953 H 0.0 **** 0.06
21099 H 52.67959394482898 137.79788781348662 35.034263652004086 H 0.0 **** 0.06
21100 H 52.85667078487471 136.08338437134944 35.47715022151161 H 0.0 **** 0.06
21101 C 10.179808959361175 96.9572974468141 16.85888195742686 C 0.0 **** -0.24
21102 H 11.169502462509453 97.00119699827263 16.40527020879952 H 0.0 **** 0.06
21103 H 9.425148695849536 97.17705630438866 16.103159104076724 H 0.0 **** 0.06
21104 H 10.115473571245047 97.69218358533197 17.66152471630258 H 0.0 **** 0.06
21105 H 10.008973798404593 95.96025015323141 17.26363998183143 H 0.0 **** 0.06
21106 C 20.360489909424587 110.33205720942158 129.44812505510396 C 0.0 **** -0.24
21107 H 20.30182625005901 110.76650706862375 130.4462412666063 H 0.0 **** 0.06
21108 H 21.34247292174851 110.5355999659156 129.02119207849188 H 0.0 **** 0.06
21109 H 19.589357168677196 110.77243548112767 128.8155854414769 H 0.0 **** 0.06
21110 H 20.207338421695198 109.25500282110266 129.51100985692705 H 0.0 **** 0.06
21111 C 77.4269631477171 129.61587066323526 74.35564197470977 C 0.0 **** -0.24
21112 H 76.5777810353459 130.03302555119615 73.81367183121442 H 0.0 **** 0.06
21113 H 77.8726405766799 128.81186586903968 73.7698118040399 H 0.0 **** 0.06
21114 H 77.08762236824163 129.22282062858721 75.313696012825 H 0.0 **** 0.06
21115 H 78.16778213144426 130.39641941753825 74.52470075159245 H 0.0 **** 0.06
21116 C 8.5031752924545 39.34239682419292 132.39666664910746 C 0.0 **** -0.24
21117 H 8.389317669655501 38.400717182889906 132.93478653547214 H 0.0 **** 0.06
21118 H 9.520990199319346 39.713154977416224 132.52498013667827 H 0.0 **** 0.06
21119 H 7.797201914193266 40.072874100237044 132.7909464610114 H 0.0 **** 0.06
21120 H 8.30576463768574 39.180656160555316 131.33690108113572 H 0.0 **** 0.06
21121 C 132.33145036892887 112.7662913920741 66.44664843720062 C 0.0 **** -0.24
21122 H 133.26891573826765 112.90313730189735 66.98590065285714 H 0.0 **** 0.06
21123 H 132.40667897136169 111.8897468035616 65.80241917199356 H 0.0 **** 0.06
21124 H 132.12888624498893 113.64848245083482 65.83938015069884 H 0.0 **** 0.06
21125 H 131.52002613641673 112.62337387362095 67.16035801744044 H 0.0 **** 0.06
21126 C 116.44065537931661 82.03603508635753 49.17006626218654 C 0.0 **** -0.24
21127 H 116.96078282346468 82.9936014593741 49.15165074757584 H 0.0 **** 0.06
21128 H 116.27351487368148 81.69270804799733 48.14862330893794 H 0.0 **** 0.06
21129 H 115.48128463587665 82.15454957083283 49.675060537631396 H 0.0 **** 0.06
21130 H 117.04507137756812 81.30458918436747 49.70557649462927 H 0.0 **** 0.06
21131 C 36.561812766379035 105.0636495650185 61.18334257819828 C 0.0 **** -0.24
21132 H 36.56422747937751 106.14439461363878 61.32828537245631 H 0.0 **** 0.06
21133 H 35.64577521691223 104.64388652128254 61.60013785236879 H 0.0 **** 0.06
21134 H 37.423942450012504 104.62780777216678 61.68711867102266 H 0.0 **** 0.06
21135 H 36.61187863769919 104.84047843425996 60.11812144338455 H 0.0 **** 0.06
21136 C 126.12446049747768 91.25248059119434 66.41586366762886 C 0.0 **** -0.24
21137 H 126.55499171224565 92.22708191452256 66.18573283868906 H 0.0 **** 0.06
21138 H 126.47491333241884 90.52038565024952 65.6884622240849 H 0.0 **** 0.06
21139 H 125.0373497006812 91.31713197664212 66.37368120390039 H 0.0 **** 0.06
21140 H 126.43140004043813 90.94732680833428 67.4161472964812 H 0.0 **** 0.06
21141 C 85.62800670314172 55.90426321499717 96.24721690888151 C 0.0 **** -0.24
21142 H 86.20126828933627 56.64575238001174 96.80508974910595 H 0.0 **** 0.06
21143 H 86.26964885186717 55.436043207625346 95.50115430182638 H 0.0 **** 0.06
21144 H 84.7898620630981 56.393253300295896 95.7506252000648 H 0.0 **** 0.06
21145 H 85.25241291871822 55.14475673730283 96.9322528489883 H 0.0 **** 0.06
21146 C 6.959253800692011 105.0940605667094 96.90673373243258 C 0.0 **** -0.24
21147 H 6.519405308057053 106.07725041554082 97.07349127758583 H 0.0 **** 0.06
21148 H 7.795579450776778 105.18468609089547 96.21273334463238 H 0.0 **** 0.06
21149 H 6.207866246791173 104.42713988824312 96.48594098421155 H 0.0 **** 0.06
21150 H 7.315147130881652 104.68992967036462 97.85414029400124 H 0.0 **** 0.06
21151 C 87.79105084720572 16.392178202216556 121.99384643579475 C 0.0 **** -0.24
21152 H 87.75583987863172 15.405041139893768 122.45557980650875 H 0.0 **** 0.06
21153 H 86.89765005152736 16.95386760703731 122.26938982858496 H 0.0 **** 0.06
21154 H 87.83415740382637 16.284309556997762 120.91017202434585 H 0.0 **** 0.06
21155 H 88.67704404605445 16.924359304840046 122.34093203577584 H 0.0 **** 0.06
21156 C 20.125662827871793 38.2550695916124 41.95312943803549 C 0.0 **** -0.24
21157 H 20.211198305002767 37.1837292208576 41.767154636558274 H 0.0 **** 0.06
21158 H 20.31753549970017 38.799761969336615 41.0285326792507 H 0.0 **** 0.06
21159 H 20.852359134237076 38.55239562142171 42.70860990253459 H 0.0 **** 0.06
21160 H 19.120340545635372 38.482467447086776 42.307317768563394 H 0.0 **** 0.06
21161 C 5.2799789943383075 42.11989673219732 25.29024364271512 C 0.0 **** -0.24
21162 H 5.2479373766520325 42.71666969612073 24.37967714739714 H 0.0 **** 0.06
21163 H 6.208619104817274 41.54970621542111 25.318393064770596 H 0.0 **** 0.06
21164 H 4.431880016783509 41.43524829505408 25.3066665566024 H 0.0 **** 0.06
21165 H 5.231607949679983 42.77882975215087 26.157731754365997 H 0.0 **** 0.06
21166 C 83.95170864308946 62.18882317155739 58.83759247805199 C 0.0 **** -0.24
21167 H 83.19886224665854 62.2950003982896 59.61851036850702 H 0.0 **** 0.06
21168 H 83.93755307615376 61.1668001553452 58.45647081327867 H 0.0 **** 0.06
21169 H 84.93634046841802 62.409427679946006 59.250189006351206 H 0.0 **** 0.06
21170 H 83.73429066207773 62.88271728710802 58.025574349433214 H 0.0 **** 0.06
21171 C 97.46377136472313 108.50977856875238 12.24668705842403 C 0.0 **** -0.24
21172 H 98.48177905888372 108.25304819765154 12.538907680115486 H 0.0 **** 0.06
21173 H 96.83372737154389 108.56668422119009 13.134046259618245 H 0.0 **** 0.06
21174 H 97.07565938066523 107.74510611844073 11.573449198034808 H 0.0 **** 0.06
21175 H 97.46404090498476 109.47508217519749 11.738262984731364 H 0.0 **** 0.06
21176 C 51.959931302041895 28.01936535640214 131.85211997643052 C 0.0 **** -0.24
21177 H 52.506015988255 28.62361305829382 132.57649645964318 H 0.0 **** 0.06
21178 H 52.66399476809414 27.43241754405394 131.2631709841256 H 0.0 **** 0.06
21179 H 51.39009890924919 28.6739521094157 131.19211367257358 H 0.0 **** 0.06
21180 H 51.27780724295462 27.351176414895058 132.3769393041235 H 0.0 **** 0.06
21181 C 76.51904955547161 46.37191005461597 85.77007214691706 C 0.0 **** -0.24
21182 H 77.27349643083045 45.979624271442674 86.45299666802964 H 0.0 **** 0.06
21183 H 76.62478949929988 47.45424744002065 85.69534654428656 H 0.0 **** 0.06
21184 H 75.52632242249507 46.1285316664561 86.14809442151805 H 0.0 **** 0.06
21185 H 76.6535040378117 45.924684395008796 84.78527609971063 H 0.0 **** 0.06
21186 C 90.44608582211796 85.62241939503423 113.74580338232215 C 0.0 **** -0.24
21187 H 90.22230474166952 84.87326401999829 112.98693035465905 H 0.0 **** 0.06
21188 H 89.60687502397411 85.69996019479711 114.43761965802523 H 0.0 **** 0.06
21189 H 90.61170176817387 86.58692866160683 113.26711638978907 H 0.0 **** 0.06
21190 H 91.34183321816926 85.32885589054733 114.2932503108677 H 0.0 **** 0.06
21191 C 30.46122112530243 45.98244470807063 104.03180515830212 C 0.0 **** -0.24
21192 H 31.03572814347354 45.112711733268895 103.7142736414362 H 0.0 **** 0.06
21193 H 30.958156117319206 46.89037180962265 103.690525159765 H 0.0 **** 0.06
21194 H 30.39067596427263 45.993301366805724 105.11965698379828 H 0.0 **** 0.06
21195 H 29.460395864288778 45.93202748023771 103.60312234386072 H 0.0 **** 0.06
21196 C 7.902262034033271 110.40438988851241 99.03781620526652 C 0.0 **** -0.24
21197 H 7.913750824600186 109.40134999477431 99.4638667002967 H 0.0 **** 0.06
21198 H 7.910840285428463 111.14091053536953 99.84157228357303 H 0.0 **** 0.06
21199 H 7.003082794485891 110.53378010134458 98.43495721866803 H 0.0 **** 0.06
21200 H 8.783281063135234 110.54171575185077 98.40971732207241 H 0.0 **** 0.06
21201 C 21.55039497087224 21.860881718880194 26.75631804935344 C 0.0 **** -0.24
21202 H 21.218971047416247 21.644848228212545 25.740363423247828 H 0.0 **** 0.06
21203 H 21.51018983097883 20.949309743471986 27.352848985150985 H 0.0 **** 0.06
21204 H 20.89648803709403 22.613966084383584 27.198261272208555 H 0.0 **** 0.06
21205 H 22.573284112769976 22.236179188688283 26.732618760339733 H 0.0 **** 0.06
21206 C 22.548932832620693 63.20857354761618 39.26191826471387 C 0.0 **** -0.24
21207 H 22.565455141732663 62.17062880534394 39.59275166463692 H 0.0 **** 0.06
21208 H 21.996846773289803 63.282409534981056 38.323606263631746 H 0.0 **** 0.06
21209 H 23.569926653290096 63.55787223522778 39.11088824372837 H 0.0 **** 0.06
21210 H 22.061761701648877 63.823757228137396 40.01874480496491 H 0.0 **** 0.06
21211 C 90.42538074029859 19.77437104923122 31.122025999083576 C 0.0 **** -0.24
21212 H 90.35306272448895 20.428150992651247 31.99176503951 H 0.0 **** 0.06
21213 H 91.01836454357786 20.26307365545727 30.349344948803434 H 0.0 **** 0.06
21214 H 89.42555126605106 19.568450396039417 30.738780897824725 H 0.0 **** 0.06
21215 H 90.9032361645557 18.83831248146989 31.411047818799986 H 0.0 **** 0.06
21216 C 20.42252376685127 30.479727655119007 65.59751952251739 C 0.0 **** -0.24
21217 H 19.353419992062847 30.61386653985258 65.76164121931826 H 0.0 **** 0.06
21218 H 20.902700497938568 31.4548147531558 65.5141137065005 H 0.0 **** 0.06
21219 H 20.579950865924737 29.9164435453591 64.67683018405282 H 0.0 **** 0.06
21220 H 20.851909566287873 29.93217000442978 66.4361073143931 H 0.0 **** 0.06
21221 C 101.49971145761509 128.47035992048626 50.7391701378568 C 0.0 **** -0.24
21222 H 100.6170774689459 129.00244979573 51.092703197592314 H 0.0 **** 0.06
21223 H 101.26570263065456 127.41088995384035 50.631029678580035 H 0.0 **** 0.06
21224 H 102.30993785777615 128.59227460713976 51.45704476849144 H 0.0 **** 0.06
21225 H 101.8054763733065 128.87562592933597 49.773773113100404 H 0.0 **** 0.06
21226 C 43.159399180194775 65.12770444918615 9.778681168651104 C 0.0 **** -0.24
21227 H 42.34441129725345 65.65740445462367 9.285813338115247 H 0.0 **** 0.06
21228 H 42.839326219234174 64.11355498247534 10.021370891135291 H 0.0 **** 0.06
21229 H 43.43213150565338 65.65175649938607 10.69373007824234 H 0.0 **** 0.06
21230 H 44.021264925056975 65.08582324422906 9.112199739789077 H 0.0 **** 0.06
21231 C 17.60005401050647 13.47935392638584 39.64722864169852 C 0.0 **** -0.24
21232 H 16.87179390636407 14.284471664430555 39.555382792795115 H 0.0 **** 0.06
21233 H 17.545688001720592 13.05200718685984 40.64850990344769 H 0.0 **** 0.06
21234 H 18.601328564371002 13.87324369346834 39.47423974351233 H 0.0 **** 0.06
21235 H 17.381690103085276 12.706484604247407 38.91010498269091 H 0.0 **** 0.06
21236 C 60.17762261307368 101.14900406166393 21.473557024290642 C 0.0 **** -0.24
21237 H 59.652996673070774 100.49273324187399 22.168323402429394 H 0.0 **** 0.06
21238 H 59.627619187963106 102.08503720306118 21.3728481123772 H 0.0 **** 0.06
21239 H 60.24941133676167 100.66437673215509 20.499750676810038 H 0.0 **** 0.06
21240 H 61.178854673690324 101.35456961780113 21.85191956803891 H 0.0 **** 0.06
21241 C 19.979720208907025 1.9896427798379968 85.4766859562571 C 0.0 **** -0.24
21242 H 19.661990531109126 2.0426760918632674 84.4350049029548 H 0.0 **** 0.06
21243 H 19.55463406816817 1.099366949292925 85.94078918525331 H 0.0 **** 0.06
21244 H 19.635096056059496 2.8764975414295364 86.00712616907511 H 0.0 **** 0.06
21245 H 21.068026536264668 1.9387436398318592 85.52221311583986 H 0.0 **** 0.06
21246 C 78.91590667807326 97.33853295775873 67.68980642130913 C 0.0 **** -0.24
21247 H 79.912065708964 97.02325143919028 67.37789480917081 H 0.0 **** 0.06
21248 H 78.97513189904573 98.32500000622596 68.15147651385193 H 0.0 **** 0.06
21249 H 78.51745943173843 96.62325312066228 68.40912248147482 H 0.0 **** 0.06
21250 H 78.26005545849226 97.38257905147438 66.81982698459582 H 0.0 **** 0.06
21251 C 66.93725970214184 5.087050836880792 65.01984267035195 C 0.0 **** -0.24
21252 H 67.84049644840402 4.500342665122105 64.84876660499751 H 0.0 **** 0.06
21253 H 67.17661698433389 5.946963170807095 65.64660498525518 H 0.0 **** 0.06
21254 H 66.19119044673474 4.469033654440949 65.51896537168727 H 0.0 **** 0.06
21255 H 66.5428457975579 5.432831796533208 64.06425422875833 H 0.0 **** 0.06
21256 C 3.8879568369330286 6.084908840792139 44.25209512768396 C 0.0 **** -0.24
21257 H 4.403159061351715 6.540373681136117 43.40649504454379 H 0.0 **** 0.06
21258 H 3.868360422506953 6.78643010197564 45.08640501318865 H 0.0 **** 0.06
21259 H 4.412989496083952 5.177774196344245 44.55127484557585 H 0.0 **** 0.06
21260 H 2.8675567916826026 5.834545129232367 43.96256826554696 H 0.0 **** 0.06
21261 C 81.52260029766833 61.985679004809356 20.09418585847036 C 0.0 **** -0.24
21262 H 81.15179461919246 62.67019902657506 20.85819935852094 H 0.0 **** 0.06
21263 H 82.24602702206272 61.30255961691813 20.54058679079042 H 0.0 **** 0.06
21264 H 82.00202085328175 62.5552984437102 19.29892324461766 H 0.0 **** 0.06
21265 H 80.69026908220025 61.41586620771551 19.683212495382428 H 0.0 **** 0.06
21266 C 3.5998310617095512 46.152553908139836 19.12958740907402 C 0.0 **** -0.24
21267 H 3.379887719379809 46.716046980516566 20.03756298590912 H 0.0 **** 0.06
21268 H 4.679722658795413 46.0774483000105 19.002546703898986 H 0.0 **** 0.06
21269 H 3.1674222800619134 46.664347017768506 18.270588887875135 H 0.0 **** 0.06
21270 H 3.173055789925513 45.153425007345746 19.21101417956936 H 0.0 **** 0.06
21271 C 42.39383527578503 69.89875046136811 80.02368430724425 C 0.0 **** -0.24
21272 H 41.477135054515685 69.49149777227802 80.45002572776332 H 0.0 **** 0.06
21273 H 42.48682594008614 70.94926299824286 80.29975716668255 H 0.0 **** 0.06
21274 H 42.35966679593556 69.80999567046516 78.93738775037468 H 0.0 **** 0.06
21275 H 43.25042172689791 69.34416603319093 80.40699597110256 H 0.0 **** 0.06
21276 C 14.441620673570611 107.34291167622911 124.4934647567792 C 0.0 **** -0.24
21277 H 15.171479926567969 107.64028172242888 125.24628118650598 H 0.0 **** 0.06
21278 H 14.557124727299907 106.27978167213536 124.27667088019831 H 0.0 **** 0.06
21279 H 14.603555939239556 107.91842944805683 123.58257327996122 H 0.0 **** 0.06
21280 H 13.435646636335946 107.52965632098329 124.86844969867832 H 0.0 **** 0.06
21281 C 29.870637382357586 46.61096124773525 112.92445990096539 C 0.0 **** -0.24
21282 H 29.397162667313978 47.37963137240662 112.31467146341498 H 0.0 **** 0.06
21283 H 29.13002893556844 45.8600099148495 113.20052748515488 H 0.0 **** 0.06
21284 H 30.28081487325918 47.06513647368513 113.82653271347004 H 0.0 **** 0.06
21285 H 30.672454411097767 46.13881860534259 112.35686688273512 H 0.0 **** 0.06
21286 C 126.99071919811497 24.81638823635228 54.31357704067085 C 0.0 **** -0.24
21287 H 126.93956446284281 25.779764177340894 53.80767983416649 H 0.0 **** 0.06
21288 H 128.0240009764255 24.46945276369479 54.331704875558785 H 0.0 **** 0.06
21289 H 126.37334094179128 24.09302589897328 53.78104058673563 H 0.0 **** 0.06
21290 H 126.62529017470155 24.922332813159187 55.33514076802686 H 0.0 **** 0.06
21291 C 58.83632239201944 56.624571335245236 134.41184095550068 C 0.0 **** -0.24
21292 H 58.20299170801587 55.73759786378764 134.4002495334685 H 0.0 **** 0.06
21293 H 59.88363657402243 56.323211161751516 134.43889879054095 H 0.0 **** 0.06
21294 H 58.606953994771175 57.22252998356343 135.29429587879338 H 0.0 **** 0.06
21295 H 58.650889757075504 57.215456798449736 133.51495458510107 H 0.0 **** 0.06
21296 C 121.54134582509114 35.89046767921556 51.236454385332365 C 0.0 **** -0.24
21297 H 121.16358994983494 34.883971058773625 51.42115196111716 H 0.0 **** 0.06
21298 H 122.41434637303749 36.07109968167191 51.864920979643315 H 0.0 **** 0.06
21299 H 120.7656800939267 36.617992703544616 51.47326237617618 H 0.0 **** 0.06
21300 H 121.82269119393858 35.98537088819461 50.187638753481636 H 0.0 **** 0.06
21301 C 136.25848085196404 22.70331989235452 55.629170739443225 C 0.0 **** -0.24
21302 H 135.89833102759556 22.125473918831922 54.77779584376566 H 0.0 **** 0.06
21303 H 136.18661015255503 23.76762758800397 55.40290576162067 H 0.0 **** 0.06
21304 H 137.29796573003978 22.443955549410113 55.830547002275864 H 0.0 **** 0.06
21305 H 135.65101649766575 22.47622251317192 56.50543435011082 H 0.0 **** 0.06
21306 C 48.36525815568514 107.24670306316011 42.38830028751664 C 0.0 **** -0.24
21307 H 48.42651429114832 106.20963875161141 42.71778677913136 H 0.0 **** 0.06
21308 H 48.177566798578624 107.88976689346003 43.24902904646959 H 0.0 **** 0.06
21309 H 47.55134739202546 107.35196754629757 41.670974198090406 H 0.0 **** 0.06
21310 H 49.30497660159361 107.53357283615972 41.91686841022502 H 0.0 **** 0.06
21311 C 8.460104439623194 88.59577487427492 110.69838596627889 C 0.0 **** -0.24
21312 H 7.948401708938917 89.00318803551586 109.82638201068389 H 0.0 **** 0.06
21313 H 9.154058256155082 87.81708929816146 110.38001983978012 H 0.0 **** 0.06
21314 H 7.726959680619274 88.17109719037609 111.38365719631193 H 0.0 **** 0.06
21315 H 9.010680862698678 89.39096014853627 111.20043279289405 H 0.0 **** 0.06
21316 C 10.708638126454446 103.39658283236986 120.18556507765561 C 0.0 **** -0.24
21317 H 11.566976198510929 103.56376300486446 120.83680361950974 H 0.0 **** 0.06
21318 H 10.625988906598195 102.33272738767307 119.96049883097243 H 0.0 **** 0.06
21319 H 10.840628571907416 103.95463117540363 119.25929860894797 H 0.0 **** 0.06
21320 H 9.801058187905085 103.73313350674756 120.68648358458648 H 0.0 **** 0.06
21321 C 65.82690168162011 135.39200859155818 112.1838166143865 C 0.0 **** -0.24
21322 H 65.50528243019566 134.83650605941767 111.3028477971549 H 0.0 **** 0.06
21323 H 66.63178999550243 136.0743024170464 111.90834238112524 H 0.0 **** 0.06
21324 H 66.1831711964255 134.6953927374793 112.94189800202147 H 0.0 **** 0.06
21325 H 64.98659506148407 135.96266054482203 112.57939871813161 H 0.0 **** 0.06
21326 C 8.114528196664217 99.32000305051145 34.845665241580605 C 0.0 **** -0.24
21327 H 8.387738221490427 98.44228226621553 35.43178774668911 H 0.0 **** 0.06
21328 H 8.594572723453531 100.20301426202779 35.26900502608203 H 0.0 **** 0.06
21329 H 7.032263898429992 99.44890477971981 34.86733106112075 H 0.0 **** 0.06
21330 H 8.444141577547832 99.18627848823711 33.815182909270845 H 0.0 **** 0.06
21331 C 22.74904235454443 104.71116420294317 30.91348158898407 C 0.0 **** -0.24
21332 H 22.58155635324627 104.98851099030202 31.954888486205192 H 0.0 **** 0.06
21333 H 23.204090255218887 103.72086250890015 30.869491831021357 H 0.0 **** 0.06
21334 H 23.413948672167294 105.43801148864918 30.447111923497523 H 0.0 **** 0.06
21335 H 21.79656392998362 104.69713608304596 30.3844295238435 H 0.0 **** 0.06
21336 C 3.94502746023025 123.39442293246292 35.44311962917257 C 0.0 **** -0.24
21337 H 4.920621628407446 123.72834370019059 35.09221519229328 H 0.0 **** 0.06
21338 H 3.362432528105387 124.256014588874 35.76985659309244 H 0.0 **** 0.06
21339 H 4.074806357821643 122.70517801313301 36.277294625434706 H 0.0 **** 0.06
21340 H 3.420876753035145 122.88769320851468 34.63216208778918 H 0.0 **** 0.06
21341 C 21.661864761164566 128.84432655281898 110.30758939233243 C 0.0 **** -0.24
21342 H 21.859754189555304 127.82706214636221 109.96757463881897 H 0.0 **** 0.06
21343 H 22.310891042133562 129.0759308278267 111.15229077262435 H 0.0 **** 0.06
21344 H 20.620229240378762 128.92748044211834 110.61530007622653 H 0.0 **** 0.06
21345 H 21.858057024728453 129.54339331030064 109.49514229440905 H 0.0 **** 0.06
21346 C 103.02989508817103 3.826276825203337 5.516544836679145 C 0.0 **** -0.24
21347 H 103.45201566138428 2.823388527719999 5.4611977791672075 H 0.0 **** 0.06
21348 H 103.57340444691874 4.486889017672183 4.840981979275114 H 0.0 **** 0.06
21349 H 103.11540018435494 4.199869037966408 6.537114194818059 H 0.0 **** 0.06
21350 H 101.97932287529733 3.7943936101268037 5.227486787333788 H 0.0 **** 0.06
21351 C 106.69353968338618 56.09871543142346 26.69639008326675 C 0.0 **** -0.24
21352 H 106.86768315326313 55.33919279126934 25.934222468675728 H 0.0 **** 0.06
21353 H 105.72489803952593 56.57011950870829 26.52520684268501 H 0.0 **** 0.06
21354 H 107.47907357008046 56.8524779147572 26.6437812611141 H 0.0 **** 0.06
21355 H 106.70188402491891 55.63250641014345 27.681211155735753 H 0.0 **** 0.06
21356 C 40.07155725825092 81.33792737404531 29.195821710924164 C 0.0 **** -0.24
21357 H 40.1876090961066 81.95408722939436 28.304256760341374 H 0.0 **** 0.06
21358 H 39.02314294936707 81.32366045719118 29.493149709805508 H 0.0 **** 0.06
21359 H 40.67324497524896 81.75207507250349 30.005443647448573 H 0.0 **** 0.06
21360 H 40.402232012280905 80.32188673709231 28.980436726101132 H 0.0 **** 0.06
21361 C 10.58947886470543 8.040047590573181 85.77881853153153 C 0.0 **** -0.24
21362 H 9.832330378203448 7.686430733084364 85.0784983332373 H 0.0 **** 0.06
21363 H 11.42001540310228 7.333604990336937 85.80173210571998 H 0.0 **** 0.06
21364 H 10.153941215146219 8.121692166259578 86.77389496494251 H 0.0 **** 0.06
21365 H 10.951521928704413 9.017177743384849 85.45843974852603 H 0.0 **** 0.06
21366 C 25.02919884206422 96.6327518547493 34.0501184002473 C 0.0 **** -0.24
21367 H 25.642402280656178 97.31794685830897 33.46514797942024 H 0.0 **** 0.06
21368 H 23.982949268555316 96.75071761367514 33.76741185829138 H 0.0 **** 0.06
21369 H 25.145918520115472 96.85619834278089 35.110884291861055 H 0.0 **** 0.06
21370 H 25.345222636013972 95.60802512323971 33.85763957698751 H 0.0 **** 0.06
21371 C 35.207572473193906 104.17922384799476 54.93203607722759 C 0.0 **** -0.24
21372 H 36.04515054477974 103.69633143602776 55.435299377481584 H 0.0 **** 0.06
21373 H 34.32272686365916 103.54823788556672 55.01197352616184 H 0.0 **** 0.06
21374 H 35.45295125888978 104.32984142071626 53.88034567629886 H 0.0 **** 0.06
21375 H 35.009648631539996 105.1438859327034 55.400562843717125 H 0.0 **** 0.06
21376 C 81.59703069784103 74.09896423043544 50.858978317778636 C 0.0 **** -0.24
21377 H 80.83982934561806 74.50512179264317 50.18791704362779 H 0.0 **** 0.06
21378 H 81.85038908154715 73.08524080082363 50.54818189850887 H 0.0 **** 0.06
21379 H 81.20776658451678 74.08143376174132 51.87619762723325 H 0.0 **** 0.06
21380 H 82.48833259221243 74.72488870594633 50.82136816879377 H 0.0 **** 0.06
21381 C 88.53847107216019 76.11557475061014 74.72424815440951 C 0.0 **** -0.24
21382 H 88.66049032014784 75.04195577320037 74.5830156224909 H 0.0 **** 0.06
21383 H 89.19655210187264 76.4528659349216 75.52581732481428 H 0.0 **** 0.06
21384 H 87.50413326663902 76.33268120559417 74.98711705682229 H 0.0 **** 0.06
21385 H 88.7961818681722 76.63446225242951 73.79969146205582 H 0.0 **** 0.06
21386 C 87.04917701678258 20.388175574444915 72.75287750766282 C 0.0 **** -0.24
21387 H 86.62264857910719 20.569330988992817 71.76698288551991 H 0.0 **** 0.06
21388 H 88.11737821447551 20.19298256151049 72.65661762236385 H 0.0 **** 0.06
21389 H 86.56168397726803 19.52456653497876 73.20558054441265 H 0.0 **** 0.06
21390 H 86.89438675045854 21.264546870045535 73.38235776434644 H 0.0 **** 0.06
21391 C 108.01367790598295 14.439022192238667 125.92404498185152 C 0.0 **** -0.24
21392 H 108.02980829794546 13.380768981212952 126.18481119185884 H 0.0 **** 0.06
21393 H 108.89569509317204 14.679939996555731 125.33066453507314 H 0.0 **** 0.06
21394 H 108.01458643989872 15.037033766213995 126.83605235727902 H 0.0 **** 0.06
21395 H 107.11610470125493 14.656861451918587 125.34679600802679 H 0.0 **** 0.06
21396 C 43.980165318303534 88.1527693999002 50.122275196096325 C 0.0 **** -0.24
21397 H 43.661362030052096 88.8501136314016 50.89708585371568 H 0.0 **** 0.06
21398 H 43.11552399584901 87.8441830320458 49.533949658204335 H 0.0 **** 0.06
21399 H 44.43713961968596 87.27825686335876 50.584636893787206 H 0.0 **** 0.06
21400 H 44.70713693668576 88.64065970326914 49.47164284165103 H 0.0 **** 0.06
21401 C 83.77535318372107 128.80970284625425 107.10448829742515 C 0.0 **** -0.24
21402 H 82.92352078721139 129.37010962142608 107.48929715933976 H 0.0 **** 0.06
21403 H 84.29431579428879 129.4075616431697 106.35421114701677 H 0.0 **** 0.06
21404 H 83.42628999065823 127.88179158396804 106.65307211396498 H 0.0 **** 0.06
21405 H 84.45786161492617 128.5816006940026 107.9229842940952 H 0.0 **** 0.06
21406 C 92.24168902032528 128.16475286631731 39.135354663901154 C 0.0 **** -0.24
21407 H 91.56354282501951 127.83451300374071 38.348106634050346 H 0.0 **** 0.06
21408 H 91.77762821058079 128.97529961821317 39.697243075950915 H 0.0 **** 0.06
21409 H 93.17196068273688 128.51745638741204 38.68924037857908 H 0.0 **** 0.06
21410 H 92.45260116756401 127.3313606641978 39.804877275657 H 0.0 **** 0.06
21411 C 9.049648681380518 115.00807076453978 4.016074721635448 C 0.0 **** -0.24
21412 H 8.605929434548216 114.20394943581738 4.602869547553382 H 0.0 **** 0.06
21413 H 9.410318023488912 114.60850563091464 3.0675076671121246 H 0.0 **** 0.06
21414 H 9.88421654488036 115.4424290595301 4.568501656731712 H 0.0 **** 0.06
21415 H 8.300349936425278 115.77630268276297 3.826788846261934 H 0.0 **** 0.06
21416 C 12.464796478584379 5.2235809030097755 92.12227570353616 C 0.0 **** -0.24
21417 H 11.731202249781362 5.098946397140736 91.32576154139207 H 0.0 **** 0.06
21418 H 13.306301558492855 5.809505558059612 91.75221277099577 H 0.0 **** 0.06
21419 H 12.818543145207656 4.244567038414715 92.44671405820031 H 0.0 **** 0.06
21420 H 12.00310736153071 5.741252960652787 92.96300149428248 H 0.0 **** 0.06
21421 C 23.87640946028543 12.214356133501482 128.8340391220152 C 0.0 **** -0.24
21422 H 24.05506861962786 13.120082769833687 128.25433123264145 H 0.0 **** 0.06
21423 H 22.82711702137965 12.171744845236859 129.1260352129736 H 0.0 **** 0.06
21424 H 24.501895631441187 12.225698224506601 129.7263005412327 H 0.0 **** 0.06
21425 H 24.121609081364596 11.341152385081571 128.22883712489576 H 0.0 **** 0.06
21426 C 56.079940987828536 69.6632878791325 84.51595672864107 C 0.0 **** -0.24
21427 H 55.57957154943182 70.1032776233576 85.37820001246752 H 0.0 **** 0.06
21428 H 55.34873331953048 69.13490902582225 83.90280725765479 H 0.0 **** 0.06
21429 H 56.84265578132343 68.96274542519785 84.85682840972277 H 0.0 **** 0.06
21430 H 56.54762579512919 70.45148873877474 83.92627344939615 H 0.0 **** 0.06
21431 C 84.80773328246369 123.85466690995764 33.75679556622357 C 0.0 **** -0.24
21432 H 85.55497937071033 124.6488866787431 33.78831380618642 H 0.0 **** 0.06
21433 H 84.91623935203609 123.22030585792255 34.636446374430385 H 0.0 **** 0.06
21434 H 84.9523707567271 123.25657026439842 32.85700143800308 H 0.0 **** 0.06
21435 H 83.81091257330763 124.29402857296026 33.745446326195264 H 0.0 **** 0.06
21436 C 59.608912232587926 54.78314787326158 105.91084693762491 C 0.0 **** -0.24
21437 H 59.76756200301216 54.72782087479331 104.83377208156082 H 0.0 **** 0.06
21438 H 60.52672488980119 54.50161663991031 106.42842323025098 H 0.0 **** 0.06
21439 H 58.806922926666005 54.10302204198388 106.19531486682213 H 0.0 **** 0.06
21440 H 59.336079816059055 55.802272437250394 106.18502509711843 H 0.0 **** 0.06
21441 C 96.50133215211895 134.2668522812271 83.89479333951142 C 0.0 **** -0.24
21442 H 97.45105078406186 134.5407713486364 83.4350761031873 H 0.0 **** 0.06
21443 H 96.68476641710527 133.60641617194406 84.74275213146655 H 0.0 **** 0.06
21444 H 95.87843314256111 133.7527959916176 83.16253175126998 H 0.0 **** 0.06
21445 H 95.99054530962349 135.16620588150357 84.23732058948411 H 0.0 **** 0.06
21446 C 43.32634410934867 0.4080656553501214 89.72263981058822 C 0.0 **** -0.24
21447 H 43.775745120866475 0.3640668340134319 88.7298372301654 H 0.0 **** 0.06
21448 H 42.54323763578424 -0.34652291449494044 89.79933025000612 H 0.0 **** 0.06
21449 H 42.89629613109008 1.396698286039065 89.88319609455166 H 0.0 **** 0.06
21450 H 44.09041821090318 0.2172787008866237 90.4753064718237 H 0.0 **** 0.06
21451 C 95.49340572261957 113.15023492716111 99.88176125916966 C 0.0 **** -0.24
21452 H 95.08220567931993 112.68881074217319 98.9844205954529 H 0.0 **** 0.06
21453 H 95.13525325060176 114.17740119636201 99.95873124081625 H 0.0 **** 0.06
21454 H 96.58163313252119 113.14904240780436 99.82376366450306 H 0.0 **** 0.06
21455 H 95.17510106749411 112.58716846200466 100.758556172003 H 0.0 **** 0.06
21456 C 63.00660148910427 77.30835655208926 47.02238212120663 C 0.0 **** -0.24
21457 H 62.13474922580937 77.07877355428855 47.63453186997124 H 0.0 **** 0.06
21458 H 63.50484204568953 76.38130627666294 46.738350067615414 H 0.0 **** 0.06
21459 H 63.695101049016316 77.93231755151322 47.59257341052074 H 0.0 **** 0.06
21460 H 62.69060399193086 77.84140053582195 46.12683555216674 H 0.0 **** 0.06
21461 C 60.00234637055033 76.62264126340463 24.87821672424687 C 0.0 **** -0.24
21462 H 60.90350538111308 77.14423520063013 24.556407392581107 H 0.0 **** 0.06
21463 H 59.138551511477644 77.27456205332265 24.746084933714172 H 0.0 **** 0.06
21464 H 60.09501827636889 76.35119135492877 25.93009074482245 H 0.0 **** 0.06
21465 H 59.872310313241655 75.72057644473693 24.280283825869503 H 0.0 **** 0.06
21466 C 62.881080408156464 135.39852254191663 91.48500487953476 C 0.0 **** -0.24
21467 H 62.24148068124394 136.0988828257507 90.94853336008609 H 0.0 **** 0.06
21468 H 63.600427037732715 134.96031937807567 90.79215602060924 H 0.0 **** 0.06
21469 H 62.26787479606723 134.60852341376608 91.92047519220785 H 0.0 **** 0.06
21470 H 63.413100081629565 135.9241358206341 92.27745410344217 H 0.0 **** 0.06
21471 C 61.439693450330736 118.54885169245958 38.478687014643356 C 0.0 **** -0.24
21472 H 61.08066048942861 119.56717178677069 38.6260659721633 H 0.0 **** 0.06
21473 H 61.339093853241764 118.27677288052587 37.427827404961306 H 0.0 **** 0.06
21474 H 60.85142468285264 117.86389868998899 39.08971837685084 H 0.0 **** 0.06
21475 H 62.48859255889043 118.48750045153183 38.7711589134621 H 0.0 **** 0.06
21476 C 83.60006246583004 70.56550524463125 24.198232460901295 C 0.0 **** -0.24
21477 H 84.21027645651714 69.70131461876866 23.936090323041924 H 0.0 **** 0.06
21478 H 83.88144684914121 70.92107248270554 25.189340336213377 H 0.0 **** 0.06
21479 H 82.54762087801402 70.27923578265393 24.199854183297447 H 0.0 **** 0.06
21480 H 83.75947261632876 71.3587163416205 23.46730109866047 H 0.0 **** 0.06
21481 C 54.795616848192836 106.7288361422734 21.073554726484993 C 0.0 **** -0.24
21482 H 55.08110892490241 106.71910851145506 20.021219821998066 H 0.0 **** 0.06
21483 H 54.871462986309396 107.74455906576938 21.4606959562583 H 0.0 **** 0.06
21484 H 55.46031027864275 106.07355007386718 21.636034815626395 H 0.0 **** 0.06
21485 H 53.768246282668954 106.37730255898123 21.173524557651312 H 0.0 **** 0.06
21486 C 32.84899439155387 92.37273114244609 25.98426199117489 C 0.0 **** -0.24
21487 H 31.926181542563114 92.80774580744819 25.599972039123145 H 0.0 **** 0.06
21488 H 32.66878636262686 91.33943974515347 26.278656212679834 H 0.0 **** 0.06
21489 H 33.186113292859446 92.9440754137494 26.85060473464648 H 0.0 **** 0.06
21490 H 33.614941841910394 92.40287289760785 25.209738259792232 H 0.0 **** 0.06
21491 C 20.85455515261509 118.0675155363422 122.2413235577502 C 0.0 **** -0.24
21492 H 21.731059839145956 117.79551123548524 122.82996036105456 H 0.0 **** 0.06
21493 H 20.948731013099064 117.65401770906618 121.23648298170548 H 0.0 **** 0.06
21494 H 20.779393605974974 119.15244952923308 122.18154102248681 H 0.0 **** 0.06
21495 H 19.959174476296937 117.6667087776724 122.71700882442951 H 0.0 **** 0.06
21496 C 7.93096211071304 134.30267838932255 66.8829354341868 C 0.0 **** -0.24
21497 H 7.769504180095083 135.34943896640723 66.62464158832937 H 0.0 **** 0.06
21498 H 7.0059288384443335 133.88024214103638 67.27776731304515 H 0.0 **** 0.06
21499 H 8.714436713181044 134.23136422187008 67.63763134403608 H 0.0 **** 0.06
21500 H 8.231017619486408 133.75142313838535 65.9920923645686 H 0.0 **** 0.06
21501 C 67.18897671040327 91.80224730595961 39.365282552127894 C 0.0 **** -0.24
21502 H 68.12542819103675 91.26748156308231 39.517519844995036 H 0.0 **** 0.06
21503 H 66.35188071484251 91.14120309822775 39.58889805571255 H 0.0 **** 0.06
21504 H 67.12310829417996 92.13245575228869 38.32797022915946 H 0.0 **** 0.06
21505 H 67.154451790015 92.66877137449315 40.02498937470074 H 0.0 **** 0.06
21506 C 80.48742610550225 112.5393089728588 13.21554248332765 C 0.0 **** -0.24
21507 H 81.21979637798424 113.0355533259596 12.578035282345347 H 0.0 **** 0.06
21508 H 80.99704754049625 111.84210398567771 13.879767000897218 H 0.0 **** 0.06
21509 H 79.77523542738231 111.99609231567021 12.594074718557426 H 0.0 **** 0.06
21510 H 79.95715684153542 113.28562444823754 13.80824126336455 H 0.0 **** 0.06
21511 C 66.72337186198322 106.6425780553351 136.14591868087777 C 0.0 **** -0.24
21512 H 66.46210415049545 107.23723000362881 135.2713735189654 H 0.0 **** 0.06
21513 H 67.43731790950514 107.19375474149206 136.75909518767565 H 0.0 **** 0.06
21514 H 67.17029659071405 105.70206571487489 135.82507627968468 H 0.0 **** 0.06
21515 H 65.8251188951071 106.43898339950096 136.72859172147318 H 0.0 **** 0.06
21516 C 76.69103669169436 13.018839712130756 60.29442043925056 C 0.0 **** -0.24
21517 H 77.60531034560128 13.383074168999286 59.824559752409684 H 0.0 **** 0.06
21518 H 75.89497255734081 13.750921225278688 60.153894019995604 H 0.0 **** 0.06
21519 H 76.8646190921428 12.869731489667032 61.35985927995942 H 0.0 **** 0.06
21520 H 76.40067057458107 12.07248588892989 59.837569210985535 H 0.0 **** 0.06
21521 C 4.389322415820402 29.159857164598748 89.32756291757488 C 0.0 **** -0.24
21522 H 3.326167813199646 29.303745732265327 89.52238969338197 H 0.0 **** 0.06
21523 H 4.9221774537184615 29.06783519576436 90.27420833586507 H 0.0 **** 0.06
21524 H 4.775664726309117 30.01594751580717 88.77442370175163 H 0.0 **** 0.06
21525 H 4.531605972625869 28.253017787060514 88.74020461891593 H 0.0 **** 0.06
21526 C 22.7379318391053 117.22382335795515 115.3179462496042 C 0.0 **** -0.24
21527 H 22.491312347343808 116.16769676063873 115.4251678933955 H 0.0 **** 0.06
21528 H 23.59105679652049 117.33102683767629 114.64748796119542 H 0.0 **** 0.06
21529 H 22.988681916868586 117.63860293846139 116.29399252715478 H 0.0 **** 0.06
21530 H 21.8810075167398 117.75702381466454 114.90510598401974 H 0.0 **** 0.06
21531 C 89.44139968840813 5.80651808480394 77.46237835469293 C 0.0 **** -0.24
21532 H 89.75519520282967 5.834340073506553 78.50597137133269 H 0.0 **** 0.06
21533 H 89.78403998295113 6.708998697318691 76.95571134687887 H 0.0 **** 0.06
21534 H 88.35356395407408 5.75165246662749 77.413314382018 H 0.0 **** 0.06
21535 H 89.87103062617771 4.930368850597517 76.97817202217334 H 0.0 **** 0.06
21536 C 103.44249891435183 102.20641635355554 104.45352549114864 C 0.0 **** -0.24
21537 H 102.78356982948661 103.07327016079319 104.4029784501895 H 0.0 **** 0.06
21538 H 103.41650057620255 101.67527993732682 103.50179324016165 H 0.0 **** 0.06
21539 H 103.10913852896957 101.5427732166142 105.25067644990884 H 0.0 **** 0.06
21540 H 104.46132446799787 102.53707588238461 104.65816634931866 H 0.0 **** 0.06
21541 C 11.368054803199527 131.5314429570156 114.75009263013348 C 0.0 **** -0.24
21542 H 11.986874925208326 130.80958519112335 114.21734590614437 H 0.0 **** 0.06
21543 H 11.273210496304841 132.43941022188892 114.15279859820228 H 0.0 **** 0.06
21544 H 11.832554051769591 131.77265143671315 115.70660087048057 H 0.0 **** 0.06
21545 H 10.38011911674883 131.1048281617367 114.92316184056642 H 0.0 **** 0.06
21546 C 135.39978358218184 55.14147175357891 23.859065061911792 C 0.0 **** -0.24
21547 H 135.69766178450027 55.04796051384727 22.814496103183274 H 0.0 **** 0.06
21548 H 135.42785476713573 54.159879684348766 24.33406102488931 H 0.0 **** 0.06
21549 H 134.3876311199678 55.542467133204354 23.913168334088823 H 0.0 **** 0.06
21550 H 136.08611344308872 55.81451537248478 24.37361214724706 H 0.0 **** 0.06
21551 C 72.05649310608533 120.49271861211861 28.492282674581595 C 0.0 **** -0.24
21552 H 71.61295755889705 121.45346411118106 28.230350663582335 H 0.0 **** 0.06
21553 H 72.09034532888302 119.85553277828562 27.607996889972227 H 0.0 **** 0.06
21554 H 71.45395743534607 120.01263938121329 29.263182633027135 H 0.0 **** 0.06
21555 H 73.06849837936358 120.64894779814526 28.86623299745861 H 0.0 **** 0.06
21556 C 72.35513006336473 34.678007527527484 35.24135191523746 C 0.0 **** -0.24
21557 H 72.24216378032042 35.20328893601484 34.292449829277814 H 0.0 **** 0.06
21558 H 72.91997274563637 35.30142939809865 35.93598424632033 H 0.0 **** 0.06
21559 H 72.88798373675579 33.74221955908906 35.07712087893866 H 0.0 **** 0.06
21560 H 71.37016537819434 34.468166316327356 35.65914890731426 H 0.0 **** 0.06
21561 C 24.407002659316674 25.520243873849495 89.8378094228989 C 0.0 **** -0.24
21562 H 23.89586753938002 26.08027244691985 89.05425854217339 H 0.0 **** 0.06
21563 H 23.74264254542412 24.747731954757057 90.22442552896162 H 0.0 **** 0.06
21564 H 24.684968352965598 26.197999489151584 90.64472419139953 H 0.0 **** 0.06
21565 H 25.303473012815203 25.057097170109444 89.42599625917633 H 0.0 **** 0.06
21566 C 81.82405584765617 132.49048262677073 60.27989319397187 C 0.0 **** -0.24
21567 H 81.93120491968183 131.77103411856146 59.46850613999328 H 0.0 **** 0.06
21568 H 81.67512294820854 133.4872932198104 59.86479839088929 H 0.0 **** 0.06
21569 H 82.72500053586832 132.48280076355326 60.893000606381875 H 0.0 **** 0.06
21570 H 80.96499727092053 132.2202616342457 60.894570403945565 H 0.0 **** 0.06
21571 C 94.41593226624866 48.12491828216787 132.43173424832793 C 0.0 **** -0.24
21572 H 93.87727613398711 47.24598373977199 132.78552047063738 H 0.0 **** 0.06
21573 H 93.7772405266057 49.00379365848565 132.52221638225865 H 0.0 **** 0.06
21574 H 94.69363874214066 47.98410657698352 131.38658244410573 H 0.0 **** 0.06
21575 H 95.31555207079472 48.266265467293806 133.03021500261502 H 0.0 **** 0.06
21576 C 106.13705362601758 92.35202242592756 113.35026949193838 C 0.0 **** -0.24
21577 H 106.21811776788127 91.77482292475817 114.27168005818885 H 0.0 **** 0.06
21578 H 106.67176083018614 93.29452559491048 113.46496914597759 H 0.0 **** 0.06
21579 H 105.08640532635206 92.55261463166056 113.14049585362045 H 0.0 **** 0.06
21580 H 106.57011452410711 91.78453317398898 112.52679013526603 H 0.0 **** 0.06
21581 C 120.39382918651948 133.1325645693937 6.108300577942572 C 0.0 **** -0.24
21582 H 119.30897910473827 133.03426211536532 6.0744927228036545 H 0.0 **** 0.06
21583 H 120.85075009274044 132.28747349095212 5.591147290153344 H 0.0 **** 0.06
21584 H 120.72494474241844 133.14582201670743 7.146708874665364 H 0.0 **** 0.06
21585 H 120.6900344159776 134.0609103551057 5.620201600057385 H 0.0 **** 0.06
21586 C 118.6161453986222 8.520037330566822 67.2159392170372 C 0.0 **** -0.24
21587 H 117.63223387823086 8.95738200328185 67.04760977847496 H 0.0 **** 0.06
21588 H 119.32815627609718 8.946492756882321 66.50834229283899 H 0.0 **** 0.06
21589 H 118.56285314383663 7.440858454635645 67.07179360391456 H 0.0 **** 0.06
21590 H 118.93982485460359 8.73557120671677 68.23409137093361 H 0.0 **** 0.06
21591 C 19.515918234699257 93.98740303210263 19.8905899921981 C 0.0 **** -0.24
21592 H 19.428688862846826 92.91144458460485 19.73745754110695 H 0.0 **** 0.06
21593 H 19.88537228585372 94.45514781194905 18.97745986316852 H 0.0 **** 0.06
21594 H 20.212719382471818 94.18184679599739 20.7061412546916 H 0.0 **** 0.06
21595 H 18.538373050688904 94.39923578477828 20.141536724109358 H 0.0 **** 0.06
21596 C 12.814637676841073 54.53915250779946 84.11732137963448 C 0.0 **** -0.24
21597 H 12.186831106234763 55.424804815513454 84.02171834026498 H 0.0 **** 0.06
21598 H 13.303671504171234 54.33536395378138 83.16406629205646 H 0.0 **** 0.06
21599 H 12.198040520663938 53.68556677784285 84.39861909100414 H 0.0 **** 0.06
21600 H 13.569664048412392 54.709952388610816 84.88506005043259 H 0.0 **** 0.06
21601 C 119.40238489976569 93.68591549635698 118.75457931573108 C 0.0 **** -0.24
21602 H 119.20227719755167 93.35690347268104 117.73476312269082 H 0.0 **** 0.06
21603 H 118.56680658399408 93.40713767403383 119.39636187353662 H 0.0 **** 0.06
21604 H 119.52738413892506 94.76818950988354 118.76886803080964 H 0.0 **** 0.06
21605 H 120.31375043547212 93.21002591733122 119.11707351889103 H 0.0 **** 0.06
21606 C 39.04927097972296 112.70943855470134 132.82046369918137 C 0.0 **** -0.24
21607 H 39.57608325956022 113.27321268674777 133.59111385716272 H 0.0 **** 0.06
21608 H 39.290623238022135 111.65150598092373 132.9154255013676 H 0.0 **** 0.06
21609 H 39.35740740403779 113.06645792967936 131.83727489908173 H 0.0 **** 0.06
21610 H 37.97542763132756 112.84988416046562 132.93820703478536 H 0.0 **** 0.06
21611 C 107.19199400106031 126.57571093371914 94.87225655320799 C 0.0 **** -0.24
21612 H 107.43561956904233 125.57337530547912 94.51844165188126 H 0.0 **** 0.06
21613 H 107.63287097046623 127.31444034217444 94.20310006199594 H 0.0 **** 0.06
21614 H 107.59043041671397 126.71187449091065 95.87768629907123 H 0.0 **** 0.06
21615 H 106.10931568245132 126.70112440097239 94.89070078932377 H 0.0 **** 0.06
21616 C 105.99089957292571 96.59355141295148 112.77874106565903 C 0.0 **** -0.24
21617 H 105.45072161765387 95.72044450381634 112.41457887688648 H 0.0 **** 0.06
21618 H 106.10027094395721 97.31719649352203 111.97000758962847 H 0.0 **** 0.06
21619 H 106.97791701756405 96.28899599708592 113.12996282893104 H 0.0 **** 0.06
21620 H 105.43690273059593 97.04754930835273 113.600727986903 H 0.0 **** 0.06
21621 C 123.731427743566 129.97748947091063 70.1514371251276 C 0.0 **** -0.24
21622 H 124.35345796097754 129.11725930806455 69.90831690563648 H 0.0 **** 0.06
21623 H 122.68161408466877 129.68420024700274 70.13192319729531 H 0.0 **** 0.06
21624 H 123.90150952579056 130.76749767227625 69.41941026214316 H 0.0 **** 0.06
21625 H 123.98883908049572 130.34222892515908 71.14546004355745 H 0.0 **** 0.06
21626 C 123.40775598658084 64.95589844311259 122.02285978616187 C 0.0 **** -0.24
21627 H 123.94054625211567 64.10060129497671 122.43799153159961 H 0.0 **** 0.06
21628 H 123.27825768236264 64.81766373799688 120.94966390685185 H 0.0 **** 0.06
21629 H 123.98270067212735 65.86413265034948 122.2059918048252 H 0.0 **** 0.06
21630 H 122.43192869829994 65.04211655396685 122.49987714608378 H 0.0 **** 0.06
21631 C 75.06550144977956 105.8229061936635 116.53672766550937 C 0.0 **** -0.24
21632 H 74.79255168264888 106.46066461967754 115.69594131979261 H 0.0 **** 0.06
21633 H 74.54941734955526 106.16553782762426 117.43428929840968 H 0.0 **** 0.06
21634 H 76.14244232430121 105.87231754850548 116.69466084813632 H 0.0 **** 0.06
21635 H 74.77622175021696 104.79500626130822 116.32131183573858 H 0.0 **** 0.06
21636 C 71.79323732298985 22.245513877935792 65.58988198445114 C 0.0 **** -0.24
21637 H 72.199316119179 23.14170214978786 65.120829052736 H 0.0 **** 0.06
21638 H 71.63244704264724 21.479501251150594 64.83099383492983 H 0.0 **** 0.06
21639 H 70.84385618634747 22.48626191739885 66.07002465114812 H 0.0 **** 0.06
21640 H 72.4949587629568 21.87652755577672 66.33689008766946 H 0.0 **** 0.06
21641 C 54.95486105727781 95.88010811902508 65.21421844706856 C 0.0 **** -0.24
21642 H 54.186373884418316 95.10830014002262 65.2637563002105 H 0.0 **** 0.06
21643 H 55.820428326778625 95.49547566198451 64.67389698454858 H 0.0 **** 0.06
21644 H 55.2523074803633 96.161692882235 66.22467366129689 H 0.0 **** 0.06
21645 H 54.560436836757134 96.75297221306035 64.69469959741471 H 0.0 **** 0.06
21646 C 69.18226290361093 40.48024577022208 98.89633560140926 C 0.0 **** -0.24
21647 H 69.12014347074343 39.42765424165823 99.17252993766046 H 0.0 **** 0.06
21648 H 68.58198386215457 41.07333984690777 99.58538095096043 H 0.0 **** 0.06
21649 H 68.80604022763278 40.61121288641954 97.88095574732667 H 0.0 **** 0.06
21650 H 70.22125129457439 40.80715963259405 98.94397525665102 H 0.0 **** 0.06
21651 C 55.686997547809256 125.06991513910862 102.59603873707186 C 0.0 **** -0.24
21652 H 56.65756896891716 125.54106108907132 102.75339725186905 H 0.0 **** 0.06
21653 H 55.41658690590296 124.49154867441479 103.47920993044232 H 0.0 **** 0.06
21654 H 55.7414326905938 124.40804985778908 101.73147570015797 H 0.0 **** 0.06
21655 H 54.934546087102035 125.83754927265403 102.4185573450803 H 0.0 **** 0.06
21656 C 124.94193319994834 6.095932508351549 17.99944931916724 C 0.0 **** -0.24
21657 H 125.45571147226494 6.782410267470826 18.672579503641145 H 0.0 **** 0.06
21658 H 124.16220486114348 6.633103670256801 17.458536230669495 H 0.0 **** 0.06
21659 H 124.49378078223111 5.287760184127691 18.577598930496094 H 0.0 **** 0.06
21660 H 125.65744981847365 5.680472259004944 17.289075570610123 H 0.0 **** 0.06
21661 C 96.66773770568244 104.01659806353256 117.29696113044594 C 0.0 **** -0.24
21662 H 97.18255197288352 104.58104280265299 118.07450564586796 H 0.0 **** 0.06
21663 H 96.40064883001423 103.03127757006659 117.68081030108922 H 0.0 **** 0.06
21664 H 97.32493220613947 103.9050381684064 116.43414488544221 H 0.0 **** 0.06
21665 H 95.76460553296468 104.54796706183899 116.99967465536955 H 0.0 **** 0.06
21666 C 133.83722204259698 44.04077445975926 59.19993641068345 C 0.0 **** -0.24
21667 H 134.59074974397384 43.30598434356469 58.91939323662878 H 0.0 **** 0.06
21668 H 133.66971043839806 44.725221070519865 58.36739822362304 H 0.0 **** 0.06
21669 H 134.18164322213795 44.60151220469035 60.06858954719358 H 0.0 **** 0.06
21670 H 132.90523309063522 43.530855712001056 59.44282631045958 H 0.0 **** 0.06
21671 C 61.118570359120866 127.13279543906123 44.9361988571377 C 0.0 **** -0.24
21672 H 60.941055759418816 126.07646077808778 45.134853465042 H 0.0 **** 0.06
21673 H 60.90006193182052 127.71247229516035 45.833444589842316 H 0.0 **** 0.06
21674 H 60.473073543113316 127.46327397662048 44.1230864362079 H 0.0 **** 0.06
21675 H 62.16135894684879 127.27858883087447 44.65390234322845 H 0.0 **** 0.06
21676 C 75.2455104962794 66.96677264929122 114.04924785876062 C 0.0 **** -0.24
21677 H 74.39035399008264 66.31699949619158 113.86038994783908 H 0.0 **** 0.06
21678 H 76.12284659158814 66.35836164752436 114.2668655296367 H 0.0 **** 0.06
21679 H 75.02958837466048 67.6115597739527 114.90107428326812 H 0.0 **** 0.06
21680 H 75.43709018530038 67.58049352794868 113.16912800247482 H 0.0 **** 0.06
21681 C 76.90226930820589 96.47378062031382 15.686003304835253 C 0.0 **** -0.24
21682 H 77.95340128776314 96.19871331629707 15.604238024645156 H 0.0 **** 0.06
21683 H 76.35355539414192 96.06800648445372 14.835664262980657 H 0.0 **** 0.06
21684 H 76.81014294435624 97.55950356355157 15.694631796451574 H 0.0 **** 0.06
21685 H 76.49086788541047 96.06742708025962 16.61074478081875 H 0.0 **** 0.06
21686 C 22.739850968599825 73.74435658068299 134.20942009385305 C 0.0 **** -0.24
21687 H 22.2218281769197 72.87631639881408 134.61801858120202 H 0.0 **** 0.06
21688 H 22.011622034214383 74.51429642198907 133.95403541727086 H 0.0 **** 0.06
21689 H 23.287336858918707 73.45075640093546 133.31352377286055 H 0.0 **** 0.06
21690 H 23.43670410863257 74.13318417702241 134.9506574218011 H 0.0 **** 0.06
21691 C 133.5613498752081 99.38751146027367 74.92705185669925 C 0.0 **** -0.24
21692 H 133.3589698218128 99.47827334686909 73.8597718259185 H 0.0 **** 0.06
21693 H 133.7231085305529 98.33936299910299 75.17794822047814 H 0.0 **** 0.06
21694 H 132.7118743036315 99.77036700328792 75.49211815352336 H 0.0 **** 0.06
21695 H 134.4528298922138 99.96386458576687 75.17642820375302 H 0.0 **** 0.06
21696 C 60.40826495491953 136.8245985863117 101.89731203500685 C 0.0 **** -0.24
21697 H 59.93301552368608 137.7283464753311 101.51769811349953 H 0.0 **** 0.06
21698 H 61.36421307084869 137.0811884003899 102.35399456687247 H 0.0 **** 0.06
21699 H 60.5727314971266 136.1278477321524 101.07500181769205 H 0.0 **** 0.06
21700 H 59.76221619777779 136.36101828455085 102.64302201979984 H 0.0 **** 0.06
21701 C 22.06784796691911 27.838971294214737 62.508865046270216 C 0.0 **** -0.24
21702 H 21.192697821786354 27.72164185649335 63.14694186595625 H 0.0 **** 0.06
21703 H 22.924161027699498 27.350440539506586 62.97419796202115 H 0.0 **** 0.06
21704 H 22.282298601175853 28.898774514226233 62.37651302828908 H 0.0 **** 0.06
21705 H 21.872821288325746 27.383399745087587 61.537747007338794 H 0.0 **** 0.06
21706 C 51.21758273858484 64.29963045229601 36.182131918561595 C 0.0 **** -0.24
21707 H 50.64427625488716 63.67489846144082 35.49681906929009 H 0.0 **** 0.06
21708 H 51.30998390629118 63.79366038297374 37.14395957828568 H 0.0 **** 0.06
21709 H 50.70618560642454 65.25263423388915 36.32034140359762 H 0.0 **** 0.06
21710 H 52.210146396956574 64.47643877122619 35.76778150458102 H 0.0 **** 0.06
21711 C 48.59858413582765 19.611584844147174 40.80948063719365 C 0.0 **** -0.24
21712 H 48.216455434686665 19.060548253689248 41.66847386603836 H 0.0 **** 0.06
21713 H 48.41342534713246 19.039957524858906 39.8994962749654 H 0.0 **** 0.06
21714 H 49.67015037083938 19.769671562701603 40.92782089130612 H 0.0 **** 0.06
21715 H 48.09435598516144 20.5752665760742 40.7425738277208 H 0.0 **** 0.06
21716 C 82.94583998529156 13.88645404939821 25.488522648481187 C 0.0 **** -0.24
21717 H 82.4720682840553 13.187357350818047 24.798348533179038 H 0.0 **** 0.06
21718 H 83.1287309608535 14.832668813615896 24.97765901757481 H 0.0 **** 0.06
21719 H 83.89215924802906 13.469512983770386 25.833724157970018 H 0.0 **** 0.06
21720 H 82.28910019985025 14.054524377979746 26.342300897662177 H 0.0 **** 0.06
21721 C 97.43196849730923 4.725677204877854 6.408251485469918 C 0.0 **** -0.24
21722 H 96.39892045004413 4.445738056150532 6.617165146404375 H 0.0 **** 0.06
21723 H 97.47925582678708 5.257224145201377 5.4574592620354 H 0.0 **** 0.06
21724 H 98.04738691776467 3.827716536921969 6.354708410366754 H 0.0 **** 0.06
21725 H 97.80113591337086 5.371738658161291 7.205553271557449 H 0.0 **** 0.06
21726 C 122.89533723530803 22.176330038131255 71.74477526263257 C 0.0 **** -0.24
21727 H 123.4027670700571 23.136769563215637 71.83800598367952 H 0.0 **** 0.06
21728 H 122.3505402011632 22.143491327553704 70.80089661346966 H 0.0 **** 0.06
21729 H 122.19722782510716 22.053390299292403 72.57218935889858 H 0.0 **** 0.06
21730 H 123.63208184285376 21.37373641732904 71.76835273624144 H 0.0 **** 0.06
21731 C 53.801222078990065 55.50428378036554 43.51282529749463 C 0.0 **** -0.24
21732 H 53.29698712521409 55.37438852260928 42.555693459824454 H 0.0 **** 0.06
21733 H 54.63500805231581 54.80621740772338 43.58213846171097 H 0.0 **** 0.06
21734 H 53.097029934965576 55.31214477959571 44.32297968973464 H 0.0 **** 0.06
21735 H 54.17415120163702 56.525591829681446 43.59127151405727 H 0.0 **** 0.06
21736 C 81.71347721814254 44.169840492416476 101.59736553678454 C 0.0 **** -0.24
21737 H 80.71544761698843 43.841188695366135 101.88812832199335 H 0.0 **** 0.06
21738 H 82.45696313663672 43.6577312779479 102.20885710871698 H 0.0 **** 0.06
21739 H 81.79831054959539 45.2461568863793 101.74648085431176 H 0.0 **** 0.06
21740 H 81.88110899094248 43.93393224068498 100.54674099754288 H 0.0 **** 0.06
21741 C 136.36460033917746 135.41979271263588 70.24063007799961 C 0.0 **** -0.24
21742 H 136.93816935774694 135.37171310970314 69.31573660816355 H 0.0 **** 0.06
21743 H 135.63545126535047 134.60950455391415 70.25768320060725 H 0.0 **** 0.06
21744 H 135.84607416806423 136.37673567106293 70.29729429023851 H 0.0 **** 0.06
21745 H 137.03853023703613 135.3203130913534 71.09219476273866 H 0.0 **** 0.06
21746 C 118.11399880225244 128.13222718033245 103.7145407988258 C 0.0 **** -0.24
21747 H 119.17031063003856 127.96474363619518 103.92437796503967 H 0.0 **** 0.06
21748 H 117.65232212761609 128.64517641611587 104.55881790743075 H 0.0 **** 0.06
21749 H 117.6176502119065 127.17500205223558 103.55504098094241 H 0.0 **** 0.06
21750 H 118.01519333660298 128.74588401365304 102.818862924434 H 0.0 **** 0.06
21751 C 136.36436826202998 72.1574327703274 42.55576541379435 C 0.0 **** -0.24
21752 H 135.64492822271325 71.47349899377635 42.10466374486475 H 0.0 **** 0.06
21753 H 137.37520632569488 71.85290059325918 42.284974696010636 H 0.0 **** 0.06
21754 H 136.25493921045472 72.1335434375416 43.63998801245509 H 0.0 **** 0.06
21755 H 136.17939342795268 73.1687152986335 42.19433769710406 H 0.0 **** 0.06
21756 C 117.44485251647558 3.094325865208713 58.658869603908684 C 0.0 **** -0.24
21757 H 117.90160092479138 2.10677384283224 58.73988852072952 H 0.0 **** 0.06
21758 H 118.21190679489547 3.82953007414023 58.41497909601176 H 0.0 **** 0.06
21759 H 116.97840069336547 3.356607926199537 59.60806760432415 H 0.0 **** 0.06
21760 H 116.69011180394367 3.0817369383439264 57.87291794492853 H 0.0 **** 0.06
21761 C 51.17583988857979 71.33389296882905 76.37978929895144 C 0.0 **** -0.24
21762 H 52.18799199240857 70.94355281580737 76.48295768450141 H 0.0 **** 0.06
21763 H 51.06327477508523 71.79578265153086 75.39918639534017 H 0.0 **** 0.06
21764 H 50.99320089119544 72.0775679066774 77.15550487003945 H 0.0 **** 0.06
21765 H 50.46026747553947 70.51852982794773 76.4825516483655 H 0.0 **** 0.06
21766 C 65.3190983667435 91.59072900449829 79.98756967215462 C 0.0 **** -0.24
21767 H 65.9557942420198 91.32618706109126 79.14338486996722 H 0.0 **** 0.06
21768 H 65.85740553618291 91.41211738414205 80.91844471586788 H 0.0 **** 0.06
21769 H 64.416926324867 90.97852288905534 79.96613627766641 H 0.0 **** 0.06
21770 H 65.04693592876279 92.64333993359216 79.92131392023106 H 0.0 **** 0.06
21771 C 57.083180715269975 26.452494771966144 24.80472121426672 C 0.0 **** -0.24
21772 H 57.00168944280453 25.69107380999634 25.58014002582499 H 0.0 **** 0.06
21773 H 56.32418672614281 26.277243793390568 24.04259179038442 H 0.0 **** 0.06
21774 H 58.07339692658064 26.402588048030566 24.350916988613506 H 0.0 **** 0.06
21775 H 56.934792976360356 27.438174880122574 25.245859366205877 H 0.0 **** 0.06
21776 C 65.23202432881715 105.20165135640438 111.64107435921858 C 0.0 **** -0.24
21777 H 65.13162599012203 105.93636038667746 112.44004174403523 H 0.0 **** 0.06
21778 H 64.58337865323351 105.47945580649753 110.80973292479402 H 0.0 **** 0.06
21779 H 64.94663746430004 104.21844576561223 112.01440415762164 H 0.0 **** 0.06
21780 H 66.2672479865719 105.17569413626607 111.30118871245597 H 0.0 **** 0.06
21781 C 79.37023683387 12.635364843983673 10.41092952467352 C 0.0 **** -0.24
21782 H 79.90306619344761 13.580341596758906 10.297783841082378 H 0.0 **** 0.06
21783 H 78.30474107971153 12.83168704496671 10.530534935727246 H 0.0 **** 0.06
21784 H 79.74448611129966 12.111515244430358 11.290429457897346 H 0.0 **** 0.06
21785 H 79.53046911182645 12.02039680533968 9.526214361536347 H 0.0 **** 0.06
21786 C 11.210484566993955 80.40801639619444 113.65080433634392 C 0.0 **** -0.24
21787 H 11.622005867818245 79.88092021753721 114.5114139380751 H 0.0 **** 0.06
21788 H 11.495346822443992 81.45982238608106 113.69919643120485 H 0.0 **** 0.06
21789 H 10.124182290432088 80.32482487330903 113.66032001710698 H 0.0 **** 0.06
21790 H 11.601932784746054 79.96714385534736 112.73408804914644 H 0.0 **** 0.06
21791 C 113.40748805027775 99.73018688066774 66.62571292126864 C 0.0 **** -0.24
21792 H 113.29575730755386 100.80002223017722 66.79948745174167 H 0.0 **** 0.06
21793 H 112.42218624933051 99.27663869727593 66.51449464500075 H 0.0 **** 0.06
21794 H 113.92321832262076 99.27672882857517 67.47294323423955 H 0.0 **** 0.06
21795 H 113.98783844514904 99.5672761711744 65.71818191421585 H 0.0 **** 0.06
21796 C 47.219996484755654 33.95777011507272 10.976699673686966 C 0.0 **** -0.24
21797 H 47.66582918041439 34.556947096847665 10.182339399241272 H 0.0 **** 0.06
21798 H 47.596965895342294 34.29531257592369 11.94145878980811 H 0.0 **** 0.06
21799 H 47.48124308573887 32.90957471620146 10.829551092608853 H 0.0 **** 0.06
21800 H 46.135951565286064 34.068629780457286 10.949758773567964 H 0.0 **** 0.06
21801 C 112.49697834755767 128.81638413591446 17.167228821513675 C 0.0 **** -0.24
21802 H 112.19410103912412 128.29417226907526 18.074890197064008 H 0.0 **** 0.06
21803 H 113.31239096429735 128.27215435622884 16.690010520817793 H 0.0 **** 0.06
21804 H 112.83062196626318 129.82223881409357 17.420334172279468 H 0.0 **** 0.06
21805 H 111.65010227219625 128.87574132666595 16.48372191625174 H 0.0 **** 0.06
21806 C 1.1899885090982316 56.87600952754059 135.6318724814031 C 0.0 **** -0.24
21807 H 0.8062690718006849 56.86378012908095 134.61213582042814 H 0.0 **** 0.06
21808 H 2.192152711929314 57.30372734489282 135.63765213206517 H 0.0 **** 0.06
21809 H 1.2278236135062812 55.857184402124076 136.01811327992232 H 0.0 **** 0.06
21810 H 0.5338543953140871 57.47843147004822 136.25996553306192 H 0.0 **** 0.06
21811 C 31.128930334150752 124.30251389245404 132.7672495879979 C 0.0 **** -0.24
21812 H 30.668984712786894 125.15803363778355 132.2706641035507 H 0.0 **** 0.06
21813 H 30.354951939640287 123.69708504342148 133.23980270890763 H 0.0 **** 0.06
21814 H 31.827893204439768 124.65639061515762 133.5249356852569 H 0.0 **** 0.06
21815 H 31.663283530328847 123.70091644099244 132.03159256527576 H 0.0 **** 0.06
21816 C 73.3940204894749 58.419563311357635 72.02536550725429 C 0.0 **** -0.24
21817 H 74.4668275480582 58.379519051015606 72.21610504453737 H 0.0 **** 0.06
21818 H 72.94900298120223 57.45028288457243 72.24899222304369 H 0.0 **** 0.06
21819 H 73.22062222315292 58.667723585932464 70.97815703222108 H 0.0 **** 0.06
21820 H 72.94175458621976 59.18225737321596 72.65967174658435 H 0.0 **** 0.06
21821 C 21.652202271139657 72.77993310455975 1.9514700699143077 C 0.0 **** -0.24
21822 H 22.08402774595838 73.03350921047303 0.9839278617982927 H 0.0 **** 0.06
21823 H 20.61083055912735 72.48456315604162 1.8178973204086333 H 0.0 **** 0.06
21824 H 21.70209499994101 73.64608741855804 2.61100965431109 H 0.0 **** 0.06
21825 H 22.210318118545445 71.95395090283074 2.3931217395556814 H 0.0 **** 0.06
21826 C 65.38499626635121 27.24435809894362 66.66986051924687 C 0.0 **** -0.24
21827 H 65.46987938649158 27.948688765274085 65.84186458596628 H 0.0 **** 0.06
21828 H 65.43202553889444 27.786175242087552 67.61438181773406 H 0.0 **** 0.06
21829 H 66.2034517518689 26.526609139544064 66.62007011862897 H 0.0 **** 0.06
21830 H 64.43367219404956 26.715919817364295 66.60087068967789 H 0.0 **** 0.06
21831 C 49.01018383625686 50.15748651036469 7.993759985971028 C 0.0 **** -0.24
21832 H 48.416803596351826 50.78238377361777 8.660786474330344 H 0.0 **** 0.06
21833 H 49.951955339156655 49.89905397406959 8.47924446897813 H 0.0 **** 0.06
21834 H 49.21400020945674 50.70094186353499 7.07091425306254 H 0.0 **** 0.06
21835 H 48.45805699230482 49.245337005527105 7.763941875633552 H 0.0 **** 0.06
21836 C 79.84201075407567 41.988869036882726 47.56331986093821 C 0.0 **** -0.24
21837 H 78.93242186009766 41.3869208138138 47.55238725711796 H 0.0 **** 0.06
21838 H 79.8845927508092 42.598872058630775 46.6612482851224 H 0.0 **** 0.06
21839 H 80.71040925628687 41.33231325636271 47.60066339491131 H 0.0 **** 0.06
21840 H 79.83696003790334 42.636006049925456 48.44063921951867 H 0.0 **** 0.06
21841 C 63.07798181464716 65.83762564434143 105.7621241134348 C 0.0 **** -0.24
21842 H 63.277242413429946 66.69082956516566 106.41097800419749 H 0.0 **** 0.06
21843 H 62.36710040735005 66.12875407940109 104.98756358560898 H 0.0 **** 0.06
21844 H 62.659147070502996 65.02313638906027 106.35265670872406 H 0.0 **** 0.06
21845 H 64.00786422393395 65.51031216999563 105.29842636992565 H 0.0 **** 0.06
21846 C 136.66468757202904 67.10500269098155 87.30179685439555 C 0.0 **** -0.24
21847 H 137.08341913118306 67.54747442441513 86.3987029261973 H 0.0 **** 0.06
21848 H 136.81204215473406 67.7844925260654 88.14232010576306 H 0.0 **** 0.06
21849 H 137.16488941802123 66.15853302549934 87.50849803150327 H 0.0 **** 0.06
21850 H 135.59859436505565 66.92905678915822 87.15899151003518 H 0.0 **** 0.06
21851 C 118.3854308663442 42.02214206885645 35.72119987705344 C 0.0 **** -0.24
21852 H 118.0088341126689 42.86012965539604 35.134644038722286 H 0.0 **** 0.06
21853 H 119.44305005045396 42.17578382405026 35.937421920382576 H 0.0 **** 0.06
21854 H 118.2605161250608 41.098564524260325 35.15709897434766 H 0.0 **** 0.06
21855 H 117.82987807850469 41.95452862536598 36.656859329147665 H 0.0 **** 0.06
21856 C 26.404534410954852 109.27529579191908 126.61666013892983 C 0.0 **** -0.24
21857 H 27.382577242373884 109.47770407267086 127.05346579419307 H 0.0 **** 0.06
21858 H 26.348894655114577 109.7288762874669 125.62624553386178 H 0.0 **** 0.06
21859 H 25.626899693159828 109.69744132195746 127.25392735296367 H 0.0 **** 0.06
21860 H 26.25994696842963 108.19851599846164 126.53263765331343 H 0.0 **** 0.06
21861 C 104.453134886821 18.991112694703958 85.16381379105013 C 0.0 **** -0.24
21862 H 103.99128497841824 19.663267507658006 84.44166452558551 H 0.0 **** 0.06
21863 H 105.45990972595884 19.341794401970176 85.39300993355437 H 0.0 **** 0.06
21864 H 104.50528352021789 17.986958400821848 84.74257305954282 H 0.0 **** 0.06
21865 H 103.85746240849642 18.972118002532568 86.07629313235213 H 0.0 **** 0.06
21866 C 4.4590468793243865 0.026207904019031503 93.85369047371984 C 0.0 **** -0.24
21867 H 5.439198424687543 0.11331649774263042 93.38421935638468 H 0.0 **** 0.06
21868 H 3.7974103886640016 0.7961319020960502 93.45813111942323 H 0.0 **** 0.06
21869 H 4.560675399939736 0.15325167204380818 94.9315571603697 H 0.0 **** 0.06
21870 H 4.04037836636957 -0.9573201177819897 93.64208864187668 H 0.0 **** 0.06
21871 C 35.36799985444412 37.6510819616318 110.43467864815744 C 0.0 **** -0.24
21872 H 34.42570668098068 37.79985462483211 110.9608746929307 H 0.0 **** 0.06
21873 H 36.117138062857634 37.27365856727306 111.13147175786816 H 0.0 **** 0.06
21874 H 35.70484235497253 38.60043262462415 110.01849659340417 H 0.0 **** 0.06
21875 H 35.22508930591917 36.93082829913271 109.62896572741022 H 0.0 **** 0.06
21876 C 41.59662916267467 28.32255616713448 68.14162235737972 C 0.0 **** -0.24
21877 H 40.79644365332903 27.58252513238054 68.10648932607954 H 0.0 **** 0.06
21878 H 42.149149238597566 28.30423659519991 67.201220258598 H 0.0 **** 0.06
21879 H 42.2722164096882 28.087956208873138 68.9647358570644 H 0.0 **** 0.06
21880 H 41.16907967489041 29.31356004586999 68.29300860475183 H 0.0 **** 0.06
21881 C 113.84346126845514 60.173434464045584 26.87177915083487 C 0.0 **** -0.24
21882 H 114.69975829476459 59.5331083138925 26.660988099954068 H 0.0 **** 0.06
21883 H 114.0529672261788 61.18598540209453 26.52515548042487 H 0.0 **** 0.06
21884 H 113.6571597664929 60.188900641412076 27.946424063663528 H 0.0 **** 0.06
21885 H 112.96509446092307 59.78658759993736 26.356281078999643 H 0.0 **** 0.06
21886 C 52.93658686910861 134.4594893291969 124.94641386641256 C 0.0 **** -0.24
21887 H 52.55165161615217 134.3922760340418 125.96318287268903 H 0.0 **** 0.06
21888 H 52.940090430158946 135.50208579692253 124.6275072639964 H 0.0 **** 0.06
21889 H 52.30240724760968 133.87721096969193 124.27801789385228 H 0.0 **** 0.06
21890 H 53.95279819119939 134.06620987671045 124.9161667066086 H 0.0 **** 0.06
21891 C 100.20829808258443 57.68044694922369 48.0462116950157 C 0.0 **** -0.24
21892 H 99.28786320753568 57.108431205082155 48.15420056770628 H 0.0 **** 0.06
21893 H 100.94304162905216 57.32698771896226 48.77016583159167 H 0.0 **** 0.06
21894 H 100.00361965501457 58.736846839455055 48.22262631025933 H 0.0 **** 0.06
21895 H 100.60014764856217 57.55029257701307 47.03738870564936 H 0.0 **** 0.06
21896 C 23.995262791439018 114.76383234909912 51.39620934971859 C 0.0 **** -0.24
21897 H 23.73780144919772 115.30279253763271 50.48403356186111 H 0.0 **** 0.06
21898 H 23.983759836924094 113.69180472841393 51.1992283155212 H 0.0 **** 0.06
21899 H 23.26847848511295 114.99906380875893 52.17351738280905 H 0.0 **** 0.06
21900 H 24.98974498793308 115.06384266990096 51.726142704724936 H 0.0 **** 0.06
21901 C 119.64368835522788 27.807314185820843 3.759977952514067 C 0.0 **** -0.24
21902 H 120.16346630799842 27.478437766341926 2.8594135184148435 H 0.0 **** 0.06
21903 H 118.57419815155646 27.633584519140243 3.64405669559444 H 0.0 **** 0.06
21904 H 119.82521771676022 28.870632699477028 3.914777391213427 H 0.0 **** 0.06
21905 H 120.01365585737102 27.246523259618073 4.617688041383289 H 0.0 **** 0.06
21906 C 53.4682926423786 18.34812979371071 80.78289581737204 C 0.0 **** -0.24
21907 H 52.69278396606457 18.044344586808734 81.48605789288308 H 0.0 **** 0.06
21908 H 53.0602633776228 19.082153041189883 80.08771305422073 H 0.0 **** 0.06
21909 H 53.81723398541459 17.476867623407657 80.22805236225747 H 0.0 **** 0.06
21910 H 54.302073665502036 18.78808293083955 81.32932647989054 H 0.0 **** 0.06
21911 C 61.63999177786158 56.35555407153686 1.940943314442677 C 0.0 **** -0.24
21912 H 60.89800291475902 56.21353186251153 1.1556413029472878 H 0.0 **** 0.06
21913 H 61.840496245350494 55.40051126914278 2.427719771979639 H 0.0 **** 0.06
21914 H 61.260619229304694 57.066068479164585 2.675327959253707 H 0.0 **** 0.06
21915 H 62.560870594981395 56.74169757395424 1.5037300143233097 H 0.0 **** 0.06
21916 C 15.995560966335688 110.99204939007899 41.753749520601104 C 0.0 **** -0.24
21917 H 15.765374960545103 111.9746451859042 41.34229362808338 H 0.0 **** 0.06
21918 H 15.81739453490934 110.23009635993421 40.99453058415604 H 0.0 **** 0.06
21919 H 15.357217410092687 110.80207681076465 42.616619143308895 H 0.0 **** 0.06
21920 H 17.040308163436407 110.96157808928652 42.06115121395128 H 0.0 **** 0.06
21921 C 17.966697682504616 87.08792109361394 122.92220982719385 C 0.0 **** -0.24
21922 H 17.932832806259427 88.16192864310811 122.7399133518797 H 0.0 **** 0.06
21923 H 18.84861878514448 86.8490626928095 123.51672719748858 H 0.0 **** 0.06
21924 H 18.015039249512654 86.5589133260613 121.97063328417325 H 0.0 **** 0.06
21925 H 17.07028432995375 86.78310146851616 123.4626847865959 H 0.0 **** 0.06
21926 C 125.40875661777079 120.14757934750003 29.890461740916237 C 0.0 **** -0.24
21927 H 124.40590177388171 119.74294230092914 30.0308189031374 H 0.0 **** 0.06
21928 H 126.14257122353662 119.351104985451 30.014581780247795 H 0.0 **** 0.06
21929 H 125.59050510008201 120.92866999228409 30.62838106926756 H 0.0 **** 0.06
21930 H 125.49306164116616 120.56769604558167 28.887799423107367 H 0.0 **** 0.06
21931 C 73.81361238301497 20.411279948455842 90.29215776549083 C 0.0 **** -0.24
21932 H 72.76304081565814 20.663577287610337 90.44118314608394 H 0.0 **** 0.06
21933 H 74.42478418332274 21.302124090781774 90.43950036222678 H 0.0 **** 0.06
21934 H 73.95629789438686 20.035509553949623 89.27881945481279 H 0.0 **** 0.06
21935 H 74.10845388781468 19.645030320318995 91.00864295354233 H 0.0 **** 0.06
21936 C 77.43547083963749 10.048434475516512 20.567106980772003 C 0.0 **** -0.24
21937 H 77.35987824464554 9.199155612843352 21.24610641482664 H 0.0 **** 0.06
21938 H 77.60410196021243 9.687281800715066 19.552037818149948 H 0.0 **** 0.06
21939 H 78.2676922015654 10.683028501816139 20.86961487922413 H 0.0 **** 0.06
21940 H 76.50957603357008 10.62258567322717 20.599344629230963 H 0.0 **** 0.06
21941 C 55.40874287316183 34.59456552744826 106.60596227376618 C 0.0 **** -0.24
21942 H 54.323890591387 34.491289798291554 106.57354720967822 H 0.0 **** 0.06
21943 H 55.7791013454941 34.85350633289636 105.61345566023442 H 0.0 **** 0.06
21944 H 55.853024004907184 33.65187208197576 106.92554389041732 H 0.0 **** 0.06
21945 H 55.67883676898066 35.380601025649426 107.31131435260977 H 0.0 **** 0.06
21946 C 14.215245003248782 56.33191879380858 131.63393433186613 C 0.0 **** -0.24
21947 H 13.240525814265027 56.010745961624835 131.2684941659429 H 0.0 **** 0.06
21948 H 14.732272416376532 55.484517145943286 132.0855328491901 H 0.0 **** 0.06
21949 H 14.083816018522299 57.116220527137855 132.37903113788434 H 0.0 **** 0.06
21950 H 14.806544869541483 56.716065607977924 130.8021935088945 H 0.0 **** 0.06
21951 C 43.460046131879295 20.84107689947689 46.59755028692939 C 0.0 **** -0.24
21952 H 44.210796246974695 21.55842781316875 46.92951415211047 H 0.0 **** 0.06
21953 H 43.67549849121549 19.86417781685134 47.02878161769178 H 0.0 **** 0.06
21954 H 43.479751936052324 20.772289938009237 45.50988347270746 H 0.0 **** 0.06
21955 H 42.473008246787884 21.172304425583206 46.921423156733965 H 0.0 **** 0.06
21956 C 130.9470562919124 41.90799407222913 82.26664423872293 C 0.0 **** -0.24
21957 H 130.14949020145067 42.313721502471374 81.64330428325985 H 0.0 **** 0.06
21958 H 131.2409866316389 40.92894204697808 81.88718384901878 H 0.0 **** 0.06
21959 H 130.59120758015806 41.80866390020039 83.29231928069828 H 0.0 **** 0.06
21960 H 131.80408120293077 42.580678434092505 82.24237308157538 H 0.0 **** 0.06
21961 C 67.9443686248299 130.26345432327153 74.83757575635082 C 0.0 **** -0.24
21962 H 67.84384743919077 131.08338058555833 74.12580576604454 H 0.0 **** 0.06
21963 H 66.96817351655028 130.0318550246122 75.26364492744902 H 0.0 **** 0.06
21964 H 68.62968696010029 130.55544299449411 75.63304130411407 H 0.0 **** 0.06
21965 H 68.33470564003011 129.38383197675626 74.3257148340154 H 0.0 **** 0.06
21966 C 113.39444684574084 45.920720034700935 105.57964205096594 C 0.0 **** -0.24
21967 H 113.52183861956283 45.429843248335885 106.54440542697094 H 0.0 **** 0.06
21968 H 112.66622246064912 46.72649489844133 105.67699306636123 H 0.0 **** 0.06
21969 H 113.03906391564979 45.19571463306238 104.84681175502143 H 0.0 **** 0.06
21970 H 114.3493471631945 46.330815228367555 105.25216634447688 H 0.0 **** 0.06
21971 C 71.05641349782674 28.0836221504901 136.05987305884776 C 0.0 **** -0.24
21972 H 70.17226371142148 28.086613664167345 136.6970310057062 H 0.0 **** 0.06
21973 H 71.8412670260982 28.681341404355834 136.52441664037082 H 0.0 **** 0.06
21974 H 70.8036892315993 28.506938090298178 135.0875854797727 H 0.0 **** 0.06
21975 H 71.40656980413253 27.05973774582594 135.92974873895264 H 0.0 **** 0.06
21976 C 61.5985326752925 23.295209534526066 41.11177381918329 C 0.0 **** -0.24
21977 H 60.63615396445036 22.817947615342348 40.92999844160309 H 0.0 **** 0.06
21978 H 62.39673997370848 22.565279312011683 40.974398153839566 H 0.0 **** 0.06
21979 H 61.62690014101713 23.67879073192563 42.13102293188781 H 0.0 **** 0.06
21980 H 61.73380238126242 24.11837630575792 40.41044392562466 H 0.0 **** 0.06
21981 C 15.086310796494189 79.19501268951842 77.4592762332602 C 0.0 **** -0.24
21982 H 15.580312831693732 78.73769972342512 76.60154262767452 H 0.0 **** 0.06
21983 H 14.085274149913666 79.51726763279294 77.17261712335497 H 0.0 **** 0.06
21984 H 15.664767726304206 80.05710071632336 77.79294062203093 H 0.0 **** 0.06
21985 H 15.01755358235252 78.46934821994728 78.26857871121155 H 0.0 **** 0.06
21986 C 73.95088296418837 109.32108184796743 17.053116620187325 C 0.0 **** -0.24
21987 H 74.42344661975551 110.0900586303973 17.664118547355315 H 0.0 **** 0.06
21988 H 74.34921986436929 109.36695621491899 16.039741418256085 H 0.0 **** 0.06
21989 H 72.87422417622889 109.48863814512922 17.029204461647282 H 0.0 **** 0.06
21990 H 74.15670389079209 108.34019295327022 17.481323081284472 H 0.0 **** 0.06
21991 C 9.331500202473485 3.9517359070573264 27.061121589349966 C 0.0 **** -0.24
21992 H 10.369156880608376 3.99045405474493 26.731798769805494 H 0.0 **** 0.06
21993 H 9.272666940901125 3.4208922961384474 28.01217408349163 H 0.0 **** 0.06
21994 H 8.733060819860949 3.4286093020186286 26.315470928769543 H 0.0 **** 0.06
21995 H 8.95163736362829 4.965403547744813 27.186146264729473 H 0.0 **** 0.06
21996 C 6.669797415401913 100.67396465904386 37.652342756734114 C 0.0 **** -0.24
21997 H 7.581810037208555 100.09705668807868 37.49258567335554 H 0.0 **** 0.06
21998 H 6.0488912713783165 100.62540596159096 36.75774693802781 H 0.0 **** 0.06
21999 H 6.928667585894651 101.71162682439524 37.860437636452694 H 0.0 **** 0.06
22000 H 6.121682119639086 100.25942051518382 38.498740927430816 H 0.0 **** 0.06
22001 C 40.96924226766822 109.83000616896908 13.48011888103747 C 0.0 **** -0.24
22002 H 41.38575249390118 110.81726279185247 13.2781889617209 H 0.0 **** 0.06
22003 H 40.68673669186501 109.76316007396846 14.53009516523366 H 0.0 **** 0.06
22004 H 41.71692963610144 109.06860915150956 13.255320531269206 H 0.0 **** 0.06
22005 H 40.09029929854853 109.67209269766741 12.855072757030769 H 0.0 **** 0.06
22006 C 117.53341993163713 102.19980056690076 136.94225446255888 C 0.0 **** -0.24
22007 H 118.08629788510643 101.36081363642296 137.36403394480124 H 0.0 **** 0.06
22008 H 118.21196840205675 102.82811824353695 136.36482831411064 H 0.0 **** 0.06
22009 H 117.09165833610788 102.78531941456677 137.74807975271648 H 0.0 **** 0.06
22010 H 116.74362258755477 101.82359947548571 136.29168088729523 H 0.0 **** 0.06
22011 C 27.423844981158773 115.64061953778827 118.351621898149 C 0.0 **** -0.24
22012 H 28.23686221291719 116.36715656717669 118.33665417249324 H 0.0 **** 0.06
22013 H 27.349061414246307 115.15897061567517 117.37600626885524 H 0.0 **** 0.06
22014 H 26.486425622044308 116.14943431380098 118.57897973951549 H 0.0 **** 0.06
22015 H 27.622400443950326 114.88817413900435 119.1149944957196 H 0.0 **** 0.06
22016 C 111.21857254316296 11.573754835602202 33.439397590629454 C 0.0 **** -0.24
22017 H 112.13274259076806 11.99270862956412 33.01979555653577 H 0.0 **** 0.06
22018 H 110.88832463025071 12.188531933961471 34.27725052483456 H 0.0 **** 0.06
22019 H 111.40930403774837 10.558635526339302 33.78740669970324 H 0.0 **** 0.06
22020 H 110.44291812095406 11.555549033400297 32.674050734279575 H 0.0 **** 0.06
22021 C 59.783369986815046 15.263682665859164 86.58926759151946 C 0.0 **** -0.24
22022 H 60.00409268366957 14.268629692520335 86.2031159028208 H 0.0 **** 0.06
22023 H 60.46735656360772 15.496825341378894 87.40557999411404 H 0.0 **** 0.06
22024 H 58.75680143181205 15.291212454985896 86.95534845450248 H 0.0 **** 0.06
22025 H 59.904456467782495 15.997637232391298 85.79192082437208 H 0.0 **** 0.06
22026 C 39.78386160805002 54.59627390102784 86.48256482862877 C 0.0 **** -0.24
22027 H 39.57414662884182 54.81494932232323 87.5298879766919 H 0.0 **** 0.06
22028 H 39.82825563030434 53.51706319244795 86.33863274123019 H 0.0 **** 0.06
22029 H 40.739723532762724 55.04028588615836 86.20370030575839 H 0.0 **** 0.06
22030 H 38.99348858712409 55.01400393938641 85.85926943689998 H 0.0 **** 0.06
22031 C 1.8501160914074717 80.1237086418424 41.47862302100663 C 0.0 **** -0.24
22032 H 1.095111021146522 79.3644506752836 41.2756557149105 H 0.0 **** 0.06
22033 H 1.4268257854340618 81.11247160599585 41.30112882382792 H 0.0 **** 0.06
22034 H 2.706149950660347 79.97048833613249 40.82107480490629 H 0.0 **** 0.06
22035 H 2.172178257163978 80.04729658582106 42.51760438013633 H 0.0 **** 0.06
22036 C 100.91120657892765 93.8167527217322 61.41420326617509 C 0.0 **** -0.24
22037 H 100.55971871994353 94.16950352395025 60.44492250725253 H 0.0 **** 0.06
22038 H 100.06015073111604 93.68162901836263 62.08146826330068 H 0.0 **** 0.06
22039 H 101.59545413359658 94.54996967739237 61.84104192028393 H 0.0 **** 0.06
22040 H 101.42854951187866 92.86593321240036 61.28833592978634 H 0.0 **** 0.06
22041 C 42.14952623187435 128.24966893625273 44.36760484290994 C 0.0 **** -0.24
22042 H 42.75871714680875 128.49666435033834 43.49850431565608 H 0.0 **** 0.06
22043 H 41.25949700411627 127.7088579888068 44.04504697041699 H 0.0 **** 0.06
22044 H 41.85302371240664 129.16754723920016 44.87583192492224 H 0.0 **** 0.06
22045 H 42.7269140383267 127.6259491352371 45.04966493539666 H 0.0 **** 0.06
22046 C 10.167164223347307 58.44070131364953 106.34708845433974 C 0.0 **** -0.24
22047 H 10.212051344522628 58.09404044147851 107.37936769630079 H 0.0 **** 0.06
22048 H 11.061727591852492 59.022058159957396 106.12049470647784 H 0.0 **** 0.06
22049 H 9.283526171208006 59.06504738268609 106.21120657026503 H 0.0 **** 0.06
22050 H 10.112703772587835 57.582712634703 105.67753523318756 H 0.0 **** 0.06
22051 C 67.83977064815949 83.12207663402003 55.12997844446568 C 0.0 **** -0.24
22052 H 67.71109849948546 82.31108530548516 54.41354870000373 H 0.0 **** 0.06
22053 H 66.866576564863 83.41911683290147 55.521735373273316 H 0.0 **** 0.06
22054 H 68.30825942796031 83.97315844212119 54.63490257254762 H 0.0 **** 0.06
22055 H 68.47454434311487 82.78487784752747 55.94994151503914 H 0.0 **** 0.06
22056 C 3.1984622271131684 92.53359391612632 65.69670365557724 C 0.0 **** -0.24
22057 H 3.135600810049766 93.59953314233086 65.47558577971753 H 0.0 **** 0.06
22058 H 2.275174496804709 92.04331922519034 65.38658174701219 H 0.0 **** 0.06
22059 H 3.3429047102482627 92.39318044655968 66.76772628297276 H 0.0 **** 0.06
22060 H 4.039170581866131 92.09927613457506 65.15655687365273 H 0.0 **** 0.06
22061 C 12.593811604308655 19.38960851039316 49.49680416599011 C 0.0 **** -0.24
22062 H 13.232006637176696 20.15315098173504 49.94094156661626 H 0.0 **** 0.06
22063 H 13.190936546548187 18.74826809016008 48.848714418335945 H 0.0 **** 0.06
22064 H 11.809506178276365 19.869043916775325 48.91015963991484 H 0.0 **** 0.06
22065 H 12.142219707835295 18.789533553727807 50.28590923049808 H 0.0 **** 0.06
22066 C 65.52528734370676 69.83125320188628 105.75217226294603 C 0.0 **** -0.24
22067 H 65.1139416848026 68.84620172957469 105.97232994041156 H 0.0 **** 0.06
22068 H 65.77399225976271 69.89236613561712 104.69265768608585 H 0.0 **** 0.06
22069 H 66.42397264519467 69.99112069064756 106.34669905771119 H 0.0 **** 0.06
22070 H 64.78722149104007 70.59554193865245 105.9979336111424 H 0.0 **** 0.06
22071 C 126.50650622389703 95.31798481249591 77.97398841360251 C 0.0 **** -0.24
22072 H 126.76503955833397 96.21926552568516 77.41845026242322 H 0.0 **** 0.06
22073 H 127.36320015895437 94.6450756041711 77.99479027279745 H 0.0 **** 0.06
22074 H 125.66536297477236 94.82186424206276 77.48945617418849 H 0.0 **** 0.06
22075 H 126.23058334915504 95.58694894068728 78.99363439586065 H 0.0 **** 0.06
22076 C 36.29320293377748 44.37919884629764 9.117584218924051 C 0.0 **** -0.24
22077 H 36.29445688859329 43.599787737285055 8.354904166873126 H 0.0 **** 0.06
22078 H 36.973972601559296 44.09983209007231 9.921939211632207 H 0.0 **** 0.06
22079 H 35.28522370026815 44.49482620617465 9.516254823383534 H 0.0 **** 0.06
22080 H 36.61908002352976 45.320227128781994 8.675119612315001 H 0.0 **** 0.06
22081 C 134.7762483559703 10.888761290727189 11.488398188504789 C 0.0 **** -0.24
22082 H 134.2597279817067 11.268238867106902 10.60696610599538 H 0.0 **** 0.06
22083 H 134.04614792810094 10.658081146071027 12.265243201492993 H 0.0 **** 0.06
22084 H 135.47063537513299 11.644446058295387 11.855444854133076 H 0.0 **** 0.06
22085 H 135.32705316417255 9.985655908743468 11.226188773530072 H 0.0 **** 0.06
22086 C 136.74227735919231 88.19185006948074 42.54227096650743 C 0.0 **** -0.24
22087 H 135.72591967252185 88.50244881706597 42.782411523590895 H 0.0 **** 0.06
22088 H 136.76423619710533 87.76389301282703 41.5391609474367 H 0.0 **** 0.06
22089 H 137.07443856519734 87.44582176591675 43.26408448547306 H 0.0 **** 0.06
22090 H 137.4054579861185 89.05636619150098 42.58251305591341 H 0.0 **** 0.06
22091 C 62.075710656772756 10.110483283128076 0.38252649840768527 C 0.0 **** -0.24
22092 H 62.56182332186363 10.837336076303956 1.0332672723629344 H 0.0 **** 0.06
22093 H 61.8139083284819 10.587637130865076 -0.5623220862111111 H 0.0 **** 0.06
22094 H 61.17212358093087 9.737512356658101 0.8649393458127292 H 0.0 **** 0.06
22095 H 62.75638124770384 9.279603509550697 0.19440298866339845 H 0.0 **** 0.06
22096 C 5.288976883761791 96.91399244786402 41.02120995906432 C 0.0 **** -0.24
22097 H 5.625357315157828 95.93649743539238 40.677198743616174 H 0.0 **** 0.06
22098 H 4.770090394758768 96.80615051128287 41.97378961367198 H 0.0 **** 0.06
22099 H 4.6099137749549755 97.34386999848577 40.28460785060123 H 0.0 **** 0.06
22100 H 6.150137255733966 97.57004532192587 41.14802676088412 H 0.0 **** 0.06
22101 C 36.318695825081086 89.53529579112931 25.435216665673636 C 0.0 **** -0.24
22102 H 36.571106276365626 89.94761709554187 26.412334972410065 H 0.0 **** 0.06
22103 H 35.595993673762884 90.18625500994115 24.942329458868414 H 0.0 **** 0.06
22104 H 35.88743690301488 88.54234946022535 25.560362037506422 H 0.0 **** 0.06
22105 H 37.22026194584537 89.46618530242074 24.82654899709445 H 0.0 **** 0.06
22106 C 40.34436649588679 36.78591380182077 30.249671048929116 C 0.0 **** -0.24
22107 H 41.174947434770274 36.99205356483173 30.924669388402975 H 0.0 **** 0.06
22108 H 40.419335493163885 35.761251999258896 29.88392255845457 H 0.0 **** 0.06
22109 H 40.381001890411824 37.476863862357526 29.407435972421794 H 0.0 **** 0.06
22110 H 39.402580149383425 36.91352569885121 30.784012488392477 H 0.0 **** 0.06
22111 C 53.66930276648978 7.074178833174898 20.922393736662457 C 0.0 **** -0.24
22112 H 53.9086528861268 6.050599052283758 21.21100597381613 H 0.0 **** 0.06
22113 H 53.67351227911942 7.7101028872546635 21.807751826556995 H 0.0 **** 0.06
22114 H 52.68234347744162 7.099785900958892 20.460131130646687 H 0.0 **** 0.06
22115 H 54.412483555464945 7.434412284833883 20.212316168129433 H 0.0 **** 0.06
22116 C 10.162344925788567 102.48975172263927 96.04052877320223 C 0.0 **** -0.24
22117 H 9.40002722458836 102.62090092980583 96.8080290249921 H 0.0 **** 0.06
22118 H 9.762519984138518 101.87420070796087 95.23359624215362 H 0.0 **** 0.06
22119 H 11.03427596818267 102.00108768323292 96.47431758734055 H 0.0 **** 0.06
22120 H 10.451410584267304 103.46416837459445 95.64524362208203 H 0.0 **** 0.06
22121 C 132.13530275962253 87.35843142519361 120.9750824186506 C 0.0 **** -0.24
22122 H 132.41103387146427 87.32033767811897 122.0294667571851 H 0.0 **** 0.06
22123 H 131.4704353926562 88.205225592468 120.80485879027937 H 0.0 **** 0.06
22124 H 131.625537732879 86.4355276187898 120.69984395940727 H 0.0 **** 0.06
22125 H 133.03346418523375 87.47349967534069 120.36832924614296 H 0.0 **** 0.06
22126 C 80.39732437637096 10.916428831940777 109.53961220830047 C 0.0 **** -0.24
22127 H 79.43882423985653 10.906704309534291 109.02089072819308 H 0.0 **** 0.06
22128 H 81.19899271991018 11.073209796274739 108.81691121543861 H 0.0 **** 0.06
22129 H 80.54586750899843 9.96336547538175 110.04602427356599 H 0.0 **** 0.06
22130 H 80.40591412544669 11.722673526836957 110.27220330118405 H 0.0 **** 0.06
22131 C 119.05781948640686 28.354306008742228 99.39913535498701 C 0.0 **** -0.24
22132 H 118.86816826433937 27.727214166129656 100.26999772876678 H 0.0 **** 0.06
22133 H 118.1367879214921 28.86078871975625 99.10914014870936 H 0.0 **** 0.06
22134 H 119.40521281278563 27.732243709452725 98.57351589692666 H 0.0 **** 0.06
22135 H 119.81946381144223 29.09388628202312 99.64256896345331 H 0.0 **** 0.06
22136 C 54.29228249423292 131.19483132111282 110.43608885282137 C 0.0 **** -0.24
22137 H 55.148746934375254 131.84651238974888 110.26203561820716 H 0.0 **** 0.06
22138 H 53.57366555763417 131.31633853571313 109.6249083504685 H 0.0 **** 0.06
22139 H 53.82120181239361 131.45829437438005 111.38241660540413 H 0.0 **** 0.06
22140 H 54.62705424140307 130.15830210775022 110.47242222979759 H 0.0 **** 0.06
22141 C 101.31952937906235 79.22609392761616 69.15814308679569 C 0.0 **** -0.24
22142 H 100.32388655004273 79.62991723954177 69.34239064290858 H 0.0 **** 0.06
22143 H 102.06949004563009 79.9390610335413 69.50050248906513 H 0.0 **** 0.06
22144 H 101.44802584717968 79.04720413672666 68.09015094758837 H 0.0 **** 0.06
22145 H 101.43668057306509 78.28719458259523 69.69956592808836 H 0.0 **** 0.06
22146 C 105.74674863437872 93.6566363954144 129.83078470119426 C 0.0 **** -0.24
22147 H 106.10390004305033 93.88121800694567 130.8361757024765 H 0.0 **** 0.06
22148 H 104.65838707058917 93.71216604174651 129.81150721954114 H 0.0 **** 0.06
22149 H 106.06566915203024 92.6542077909268 129.54750462990884 H 0.0 **** 0.06
22150 H 106.16132735578705 94.38073603942196 129.12871540457908 H 0.0 **** 0.06
22151 C 59.473900524790636 5.647166028150053 41.67153846775733 C 0.0 **** -0.24
22152 H 60.24317058596304 5.120950009500746 41.1067302548706 H 0.0 **** 0.06
22153 H 59.640527768776195 5.4961167609668 42.73834518314624 H 0.0 **** 0.06
22154 H 58.493155430486524 5.257263518723789 41.397947195230756 H 0.0 **** 0.06
22155 H 59.518641082367964 6.711186288848609 41.44341757856881 H 0.0 **** 0.06
22156 C 32.993172877866556 78.37021095143814 75.74828438773646 C 0.0 **** -0.24
22157 H 32.12367595723637 77.72076858505878 75.85961217651403 H 0.0 **** 0.06
22158 H 33.24520838945796 78.80737796700191 76.71467881250607 H 0.0 **** 0.06
22159 H 32.76300463515702 79.16506230035213 75.03888607167029 H 0.0 **** 0.06
22160 H 33.83627170069727 77.7871821412794 75.3804777173185 H 0.0 **** 0.06
22161 C 30.808541818213342 102.54708019692839 106.19878052832715 C 0.0 **** -0.24
22162 H 30.515079160465426 103.19178118408377 105.36971092057644 H 0.0 **** 0.06
22163 H 30.396451784078103 102.94032462966823 107.12779595078314 H 0.0 **** 0.06
22164 H 31.896218756249183 102.51694795614014 106.26711069938432 H 0.0 **** 0.06
22165 H 30.42721056501845 101.54037403372297 106.02846838047844 H 0.0 **** 0.06
22166 C 74.66482684631076 114.34081749603678 89.5020733075549 C 0.0 **** -0.24
22167 H 74.26383934483157 114.84779817297445 90.37965673533893 H 0.0 **** 0.06
22168 H 74.00842099686153 113.51505449444957 89.22874775423986 H 0.0 **** 0.06
22169 H 75.65968188667365 113.95574882567365 89.72850361565838 H 0.0 **** 0.06
22170 H 74.72781167945513 115.04614198911364 88.67300674539797 H 0.0 **** 0.06
22171 C 15.440952948268198 92.81387653329337 3.62233605816229 C 0.0 **** -0.24
22172 H 15.202620019546835 93.60770078065717 2.9146881769792117 H 0.0 **** 0.06
22173 H 16.107750325746437 93.20265257260824 4.392763580456972 H 0.0 **** 0.06
22174 H 15.930103718678616 91.99403945086115 3.096785184437806 H 0.0 **** 0.06
22175 H 14.522373907394169 92.4528993088812 4.086046202636112 H 0.0 **** 0.06
22176 C 122.69246378501992 55.45594885600923 79.12004525216818 C 0.0 **** -0.24
22177 H 123.1287647316251 55.61330596349015 80.10610014674798 H 0.0 **** 0.06
22178 H 122.25271966138399 56.38840266069133 78.76538471853452 H 0.0 **** 0.06
22179 H 121.92105923597092 54.689630191826325 79.18230840067966 H 0.0 **** 0.06
22180 H 123.46980010250908 55.13363691113831 78.42703130167378 H 0.0 **** 0.06
22181 C 132.64016949958253 47.57573833240649 38.40232916059762 C 0.0 **** -0.24
22182 H 133.7166642231394 47.63422324350586 38.566264315710214 H 0.0 **** 0.06
22183 H 132.2042061768648 46.86538319296898 39.105692280581025 H 0.0 **** 0.06
22184 H 132.44594855790726 47.24352728019848 37.38279687664601 H 0.0 **** 0.06
22185 H 132.19556245773512 48.55874481521643 38.555534462923106 H 0.0 **** 0.06
22186 C 88.05568456339009 75.40667000273194 91.98350859416021 C 0.0 **** -0.24
22187 H 89.03490912822292 75.37936179361414 92.46202358702254 H 0.0 **** 0.06
22188 H 87.34031336541005 74.8486114150345 92.58772604767978 H 0.0 **** 0.06
22189 H 88.12300578748915 74.95766349529606 90.99251662869064 H 0.0 **** 0.06
22190 H 87.72556253738338 76.44194925364607 91.89150079251755 H 0.0 **** 0.06
22191 C 108.16674071505788 21.537740507590584 83.00965732416842 C 0.0 **** -0.24
22192 H 108.09239677964503 20.56508115304652 83.49652573120756 H 0.0 **** 0.06
22193 H 107.35678433078799 21.64370687183178 82.28666428550133 H 0.0 **** 0.06
22194 H 109.12497035160516 21.616022993200858 82.4976614234273 H 0.0 **** 0.06
22195 H 108.09009892977413 22.32592196848779 83.75938736499629 H 0.0 **** 0.06
22196 C 85.80322118163059 0.3356594530979464 62.72670150638737 C 0.0 **** -0.24
22197 H 85.9971835267533 1.1305766127842958 62.00675680895017 H 0.0 **** 0.06
22198 H 85.51490175604425 -0.5715772549509666 62.196095711216174 H 0.0 **** 0.06
22199 H 84.99703527465851 0.6393994125055542 63.39341757601363 H 0.0 **** 0.06
22200 H 86.70509689051113 0.14555987277631743 63.308961274540536 H 0.0 **** 0.06
22201 C 80.23662402577902 8.85293101817777 59.79892833251978 C 0.0 **** -0.24
22202 H 80.24757321947729 9.780043501881664 59.226646429891616 H 0.0 **** 0.06
22203 H 80.6543063980871 9.032714769146963 60.789203177805064 H 0.0 **** 0.06
22204 H 80.83545646549051 8.101190838071318 59.28292972876551 H 0.0 **** 0.06
22205 H 79.21079677492766 8.49735828027903 59.894665121808885 H 0.0 **** 0.06
22206 C 113.32198923745182 19.279451900752065 75.55296785947223 C 0.0 **** -0.24
22207 H 113.16483076053123 19.79432121030203 74.60428933288065 H 0.0 **** 0.06
22208 H 112.36306615308706 19.140039048901315 76.05339537356483 H 0.0 **** 0.06
22209 H 113.9784804122749 19.8764827735302 76.18516520976792 H 0.0 **** 0.06
22210 H 113.77990329828981 18.30835957013636 75.36696134573498 H 0.0 **** 0.06
22211 C 104.63030471186043 11.108501540125587 94.62939605343621 C 0.0 **** -0.24
22212 H 104.75852019485394 11.962406469342511 95.29484044468091 H 0.0 **** 0.06
22213 H 103.69361969166648 10.602144793299829 94.86491491190156 H 0.0 **** 0.06
22214 H 105.4620334186638 10.416553604000455 94.76188180549019 H 0.0 **** 0.06
22215 H 104.60656753592978 11.45420265786035 93.5956676695306 H 0.0 **** 0.06
22216 C 48.459439694214424 18.73886589063102 45.53022554760558 C 0.0 **** -0.24
22217 H 47.51788636114527 18.636519888693556 46.06822610687067 H 0.0 **** 0.06
22218 H 48.660708190569935 17.82356233636466 44.97332656864299 H 0.0 **** 0.06
22219 H 49.26702534610665 18.91690917939337 46.24021291240592 H 0.0 **** 0.06
22220 H 48.3927780712001 19.578298300069207 44.83753618199165 H 0.0 **** 0.06
22221 C 60.55300651130662 109.28973857255579 58.579308856447085 C 0.0 **** -0.24
22222 H 60.52179349330285 109.74147183409681 57.58835839370522 H 0.0 **** 0.06
22223 H 59.57941378321878 108.85668053323312 58.81254495119407 H 0.0 **** 0.06
22224 H 60.79877526462472 110.05129010673471 59.31938860994654 H 0.0 **** 0.06
22225 H 61.312297740253086 108.50702030532244 58.59825804634775 H 0.0 **** 0.06
22226 C 125.87560781601613 67.38255789616622 8.38941439839786 C 0.0 **** -0.24
22227 H 125.74679295798632 67.80508187414168 9.385497349308196 H 0.0 **** 0.06
22228 H 126.71114595811555 66.6815538981572 8.398163081437758 H 0.0 **** 0.06
22229 H 126.08034654118923 68.18252795293962 7.678089568962434 H 0.0 **** 0.06
22230 H 124.9655026225098 66.85929901650103 8.09573301583228 H 0.0 **** 0.06
22231 C 77.3338644915466 52.71164215555142 1.2131769057239055 C 0.0 **** -0.24
22232 H 78.1515738500838 52.13367505387593 0.7815352276977805 H 0.0 **** 0.06
22233 H 77.2156592651299 53.643466213635236 0.6595538011884052 H 0.0 **** 0.06
22234 H 77.55824965183542 52.93415498246864 2.2564637373661682 H 0.0 **** 0.06
22235 H 76.41108508313434 52.133745901788075 1.1558168467506036 H 0.0 **** 0.06
22236 C 31.727755223182612 82.67318898582614 118.70054114644077 C 0.0 **** -0.24
22237 H 30.907452458410972 82.91068890219081 118.02313563323045 H 0.0 **** 0.06
22238 H 32.63598088245752 82.49713065140632 118.12214527542514 H 0.0 **** 0.06
22239 H 31.480649653913645 81.77856901737796 119.2710259875302 H 0.0 **** 0.06
22240 H 31.887565562526675 83.50793780110098 119.38251995988452 H 0.0 **** 0.06
22241 C 109.49253144850798 60.36690718343556 25.117586225494108 C 0.0 **** -0.24
22242 H 109.97406151570434 59.552917282727094 25.660288112600227 H 0.0 **** 0.06
22243 H 109.2472273828817 60.03416730765551 24.108660467270397 H 0.0 **** 0.06
22244 H 110.1702157341596 61.21924808924001 25.06535531401633 H 0.0 **** 0.06
22245 H 108.58018844903705 60.65890123978997 25.6369403915175 H 0.0 **** 0.06
22246 C 60.19151349628214 65.45050284326234 18.24071885557948 C 0.0 **** -0.24
22247 H 60.60972551938397 64.58278865766535 18.751665912012463 H 0.0 **** 0.06
22248 H 60.828305762066975 66.31828469637028 18.42087285089611 H 0.0 **** 0.06
22249 H 59.19075323873648 65.64881462929137 18.62267348777268 H 0.0 **** 0.06
22250 H 60.14093407088632 65.25233482630509 17.170583270515714 H 0.0 **** 0.06
22251 C 49.06580108000432 4.627293278399861 53.291212033583676 C 0.0 **** -0.24
22252 H 48.263189220458855 4.9552646606266535 52.630603950376766 H 0.0 **** 0.06
22253 H 48.89469022197537 5.018749941053159 54.29407983380919 H 0.0 **** 0.06
22254 H 50.01951489179392 4.995910501558228 52.914353518250536 H 0.0 **** 0.06
22255 H 49.08500752499626 3.5375564962388353 53.32458810200906 H 0.0 **** 0.06
22256 C 79.11120173007268 76.74023319815697 84.67512488996908 C 0.0 **** -0.24
22257 H 78.6341466284322 76.68923833382766 83.69647070773112 H 0.0 **** 0.06
22258 H 79.98897343407039 77.38535033733486 84.61843400612861 H 0.0 **** 0.06
22259 H 79.41455041889093 75.73944218411621 84.98413140565476 H 0.0 **** 0.06
22260 H 78.40713643889737 77.14690193734938 85.40146344036182 H 0.0 **** 0.06
22261 C 9.582617925932652 123.33608439582719 46.75348558959615 C 0.0 **** -0.24
22262 H 9.390077227823639 122.51687736121193 46.059853820411035 H 0.0 **** 0.06
22263 H 8.752386948850841 124.04309196482671 46.71881589307873 H 0.0 **** 0.06
22264 H 10.504159344659826 123.84312187432886 46.47025529701813 H 0.0 **** 0.06
22265 H 9.680915249945002 122.93974163406529 47.76395236233054 H 0.0 **** 0.06
22266 C 111.59704684973013 101.02563207725294 124.96244055305246 C 0.0 **** -0.24
22267 H 112.67275330085107 100.85294900086359 124.98237077215427 H 0.0 **** 0.06
22268 H 111.40251237803179 102.09470568594548 124.86854119840842 H 0.0 **** 0.06
22269 H 111.1529793699599 100.6557278658654 125.88715351217726 H 0.0 **** 0.06
22270 H 111.15971893673046 100.50047995089972 124.11373885812002 H 0.0 **** 0.06
22271 C 64.43612015009305 122.17017685554714 99.39088046311534 C 0.0 **** -0.24
22272 H 63.593532862669434 122.84432823374834 99.23759433784073 H 0.0 **** 0.06
22273 H 64.06711004144813 121.19445059477329 99.70817827592572 H 0.0 **** 0.06
22274 H 65.09264188237859 122.57757705141299 100.15839871277728 H 0.0 **** 0.06
22275 H 64.9898799787959 122.06330737816819 98.45787454111496 H 0.0 **** 0.06
22276 C 3.990150951139068 118.12624682719914 88.65080085741499 C 0.0 **** -0.24
22277 H 4.5234382368656405 117.65652157781156 87.82537621385005 H 0.0 **** 0.06
22278 H 4.592090404302997 118.0568879252252 89.55790801014987 H 0.0 **** 0.06
22279 H 3.0395848278853386 117.61649189640892 88.8064350331179 H 0.0 **** 0.06
22280 H 3.8064302508421655 119.17411144362858 88.41552555780423 H 0.0 **** 0.06
22281 C 48.485828297613295 105.60086671540876 28.634905142074444 C 0.0 **** -0.24
22282 H 48.60226154811534 104.5701966368288 28.299286956469587 H 0.0 **** 0.06
22283 H 47.84200240510182 105.62487492563835 29.515316401427583 H 0.0 **** 0.06
22284 H 48.0345032219476 106.19251445521303 27.838966293375904 H 0.0 **** 0.06
22285 H 49.462207315725834 106.01384467744691 28.88667137957154 H 0.0 **** 0.06
22286 C 44.43439259690873 70.24303425370329 107.49527308374593 C 0.0 **** -0.24
22287 H 44.67085621008131 69.24945088971809 107.87426260590394 H 0.0 **** 0.06
22288 H 43.37674963323907 70.29010157509062 107.23385170023928 H 0.0 **** 0.06
22289 H 45.03689895658535 70.44639024420665 106.6092406065548 H 0.0 **** 0.06
22290 H 44.65274795436848 70.98632984169429 108.26204010731526 H 0.0 **** 0.06
22291 C 129.5812875432644 16.329153210321913 113.70267374941017 C 0.0 **** -0.24
22292 H 129.70793589219858 17.26168408475803 114.2521602387715 H 0.0 **** 0.06
22293 H 128.76934870587831 16.438465334279392 112.98421831453757 H 0.0 **** 0.06
22294 H 129.34309994213703 15.52648411002982 114.40110490355073 H 0.0 **** 0.06
22295 H 130.50448182214114 16.089980480210734 113.17492022131304 H 0.0 **** 0.06
22296 C 81.83450534799312 58.60016370248697 123.75634996137858 C 0.0 **** -0.24
22297 H 81.12616904150906 58.881992473773224 124.53497455063832 H 0.0 **** 0.06
22298 H 81.70299291692692 59.25311204372696 122.89296473398139 H 0.0 **** 0.06
22299 H 81.65852335838588 57.56598327449166 123.46097523840636 H 0.0 **** 0.06
22300 H 82.85159766790775 58.70139287356251 124.13675894037976 H 0.0 **** 0.06
22301 C 61.46134790033176 68.7807601931472 39.92668163586649 C 0.0 **** -0.24
22302 H 62.35482287369439 69.3960523698441 39.818621040449756 H 0.0 **** 0.06
22303 H 61.721351855599096 67.73305492068583 39.7708107411533 H 0.0 **** 0.06
22304 H 60.7190222140228 69.08529071860693 39.1888565891349 H 0.0 **** 0.06
22305 H 61.05135062402417 68.90805861564604 40.929006157419806 H 0.0 **** 0.06
22306 C 133.06866839304408 8.224188913107753 49.54838161998356 C 0.0 **** -0.24
22307 H 133.72508621314384 8.199104833436593 48.678812487634275 H 0.0 **** 0.06
22308 H 132.07840399445467 8.565832667519317 49.24579764020122 H 0.0 **** 0.06
22309 H 133.47705343009727 8.906161580363573 50.29384387940378 H 0.0 **** 0.06
22310 H 132.99343301394404 7.22353564885691 49.97519983944228 H 0.0 **** 0.06
22311 C 55.272641407206876 36.66754497027455 12.520342210633828 C 0.0 **** -0.24
22312 H 56.265764754715875 36.9665467091977 12.184383790592904 H 0.0 **** 0.06
22313 H 55.18372393591288 36.845208322004055 13.592227695566862 H 0.0 **** 0.06
22314 H 55.122905078782026 35.6078073052762 12.313266894802155 H 0.0 **** 0.06
22315 H 54.51935474953821 37.25133651225991 11.99120072171354 H 0.0 **** 0.06
22316 C 113.36914145949146 71.61951171122337 96.2069783156934 C 0.0 **** -0.24
22317 H 113.16297771202147 72.37801339544843 95.45147597305971 H 0.0 **** 0.06
22318 H 114.21292945587061 71.93788910754012 96.82051135440142 H 0.0 **** 0.06
22319 H 113.61151019029171 70.67584115770721 95.7181671550132 H 0.0 **** 0.06
22320 H 112.49074418019836 71.48696916900246 96.83765707749416 H 0.0 **** 0.06
22321 C 131.7012127095852 131.6690886485257 13.851724692162946 C 0.0 **** -0.24
22322 H 132.6270515335616 131.92273807266105 14.367744545576159 H 0.0 **** 0.06
22323 H 131.61473109541743 132.27097594368345 12.94649282866797 H 0.0 **** 0.06
22324 H 130.85401480299026 131.87173696519397 14.506129291905637 H 0.0 **** 0.06
22325 H 131.7109190848903 130.61203930350007 13.586052851528507 H 0.0 **** 0.06
22326 C 95.39540672221989 136.7869807742965 66.19192262296247 C 0.0 **** -0.24
22327 H 95.95256655956604 137.4182139846092 66.88422502408326 H 0.0 **** 0.06
22328 H 95.32199236531056 137.285992282534 65.22495728234927 H 0.0 **** 0.06
22329 H 94.39516385619004 136.61020617977033 66.5864869164862 H 0.0 **** 0.06
22330 H 95.91302065252455 135.83508690513236 66.07150268054994 H 0.0 **** 0.06
22331 C 113.1096767907909 51.19336119318541 63.39723061568549 C 0.0 **** -0.24
22332 H 112.34412789686738 51.51170530359309 62.68894181471089 H 0.0 **** 0.06
22333 H 112.85959501350808 51.56133630880123 64.39216501990205 H 0.0 **** 0.06
22334 H 114.07585385589317 51.59619509210057 63.09212108461665 H 0.0 **** 0.06
22335 H 113.15856025387959 50.10430440830743 63.41353447701624 H 0.0 **** 0.06
22336 C 49.230398392073326 114.51669101225639 132.71560312808703 C 0.0 **** -0.24
22337 H 49.75627663323762 113.92909235082217 133.46774402190255 H 0.0 **** 0.06
22338 H 48.64955241674993 113.85175568185178 132.07587033032038 H 0.0 **** 0.06
22339 H 49.954563560863406 115.0622295961449 132.11005663772016 H 0.0 **** 0.06
22340 H 48.56187851738771 115.22366655215458 133.2080062917425 H 0.0 **** 0.06
22341 C 75.465266648598 124.43342380805552 31.355621635624544 C 0.0 **** -0.24
22342 H 75.79387632812484 125.46936950927122 31.267064950006073 H 0.0 **** 0.06
22343 H 74.88571763836018 124.16127191303619 30.47328588932774 H 0.0 **** 0.06
22344 H 74.84594942009562 124.32381456448132 32.245542991381086 H 0.0 **** 0.06
22345 H 76.33507997233039 123.78266688926088 31.43515902808366 H 0.0 **** 0.06
22346 C 76.47470076123108 121.30575688504341 49.60868397498193 C 0.0 **** -0.24
22347 H 76.88348578387115 120.5241540742778 48.96762863176632 H 0.0 **** 0.06
22348 H 75.84753479325485 120.85431890564887 50.376922626148655 H 0.0 **** 0.06
22349 H 75.87852256547089 121.99144059589379 49.00709820277646 H 0.0 **** 0.06
22350 H 77.29164765654565 121.85214102439754 50.07986886164949 H 0.0 **** 0.06
22351 C 85.50373370207275 51.244074542373 123.16175661113704 C 0.0 **** -0.24
22352 H 85.22369218755146 51.61865385852744 122.17793138257304 H 0.0 **** 0.06
22353 H 85.68392929357452 50.1698909360461 123.10301762227238 H 0.0 **** 0.06
22354 H 84.69709940899561 51.4392283659181 123.86781902025291 H 0.0 **** 0.06
22355 H 86.41054202810342 51.746854786007475 123.49793773570536 H 0.0 **** 0.06
22356 C 133.763654757023 19.293836700978375 23.846718317607284 C 0.0 **** -0.24
22357 H 134.47096696509317 18.825437953759902 24.531682660522904 H 0.0 **** 0.06
22358 H 134.16324857460322 19.260222167839032 22.83285248082032 H 0.0 **** 0.06
22359 H 133.60458227870294 20.330118007542332 24.14230077700087 H 0.0 **** 0.06
22360 H 132.815665872944 18.756366374839395 23.88168712423228 H 0.0 **** 0.06
22361 C 51.62954897163746 19.511599649337256 120.40298872529247 C 0.0 **** -0.24
22362 H 51.61755608295772 20.082422444705642 119.47496796735273 H 0.0 **** 0.06
22363 H 51.53097407336789 20.19203848100409 121.25019776543253 H 0.0 **** 0.06
22364 H 52.57079946182418 18.967321982461897 120.48204828262988 H 0.0 **** 0.06
22365 H 50.799621622119176 18.80513405244892 120.40581830534377 H 0.0 **** 0.06
22366 C 61.552343771649845 49.29856802369841 62.616642398370686 C 0.0 **** -0.24
22367 H 61.13185196581051 49.876043394620694 61.793398877122286 H 0.0 **** 0.06
22368 H 60.86191585077236 49.31216524587023 63.460083843400014 H 0.0 **** 0.06
22369 H 62.50415652933184 49.73443072786773 62.917974732248695 H 0.0 **** 0.06
22370 H 61.71036501843405 48.26984673033894 62.29320641357725 H 0.0 **** 0.06
22371 C 33.19918530814829 48.84227273922761 65.40134340288209 C 0.0 **** -0.24
22372 H 33.40221044086809 48.53394325611794 66.42671834289322 H 0.0 **** 0.06
22373 H 32.4253066669437 49.61086312870577 65.40000395487183 H 0.0 **** 0.06
22374 H 32.85891723023933 47.98332967049777 64.82361728608612 H 0.0 **** 0.06
22375 H 34.10965186696447 49.24212296476304 64.95548862638653 H 0.0 **** 0.06
22376 C 43.95401151063342 117.8963911534683 83.50677276167916 C 0.0 **** -0.24
22377 H 44.62896366774685 117.05721911726513 83.34049615660999 H 0.0 **** 0.06
22378 H 44.50308672991433 118.72000862364548 83.96344632244968 H 0.0 **** 0.06
22379 H 43.14602523962571 117.5855825250467 84.16992756707249 H 0.0 **** 0.06
22380 H 43.53631673574666 118.22124936765616 82.55319563654893 H 0.0 **** 0.06
22381 C 124.5594832068324 15.423119849520354 56.050877168533944 C 0.0 **** -0.24
22382 H 124.384984694975 16.240356698141397 55.35059772934554 H 0.0 **** 0.06
22383 H 124.03786104748288 15.62970444420656 56.98571416879544 H 0.0 **** 0.06
22384 H 125.62876080818715 15.334015526183322 56.24361250091141 H 0.0 **** 0.06
22385 H 124.1880800121364 14.492082320683657 55.624205410290614 H 0.0 **** 0.06
22386 C 80.4074463430923 5.133543449845888 18.643121371001918 C 0.0 **** -0.24
22387 H 80.22483818742394 4.064591147007093 18.52632938033733 H 0.0 **** 0.06
22388 H 81.4343923658954 5.360163103457694 18.356141456484004 H 0.0 **** 0.06
22389 H 80.2500000076955 5.416872923156319 19.68382311690287 H 0.0 **** 0.06
22390 H 79.7203888156628 5.691194661096148 18.006571963806195 H 0.0 **** 0.06
22391 C 27.393641684181482 14.106451829262866 44.49269407562926 C 0.0 **** -0.24
22392 H 28.368140945809387 13.775679619983663 44.849745786625434 H 0.0 **** 0.06
22393 H 26.781914901932403 14.414423608066443 45.340553014830064 H 0.0 **** 0.06
22394 H 26.901259482988785 13.28679372504503 43.968892159562316 H 0.0 **** 0.06
22395 H 27.521798345391467 14.94799938443748 43.811827973394465 H 0.0 **** 0.06
22396 C 128.51532558718696 128.23666480120585 20.968942188329862 C 0.0 **** -0.24
22397 H 128.25408366709786 128.59888599832183 21.96301738861817 H 0.0 **** 0.06
22398 H 127.6520344759542 128.3288709428438 20.310486790381745 H 0.0 **** 0.06
22399 H 128.81624845214262 127.19121854261229 21.030882293851548 H 0.0 **** 0.06
22400 H 129.3404332080951 128.8297361437384 20.572625486708972 H 0.0 **** 0.06
22401 C 22.097969569438803 68.61211922113486 25.05270737064326 C 0.0 **** -0.24
22402 H 21.971575301883533 67.91549252001826 25.880528437308456 H 0.0 **** 0.06
22403 H 23.148959254419673 68.64882078886674 24.765183872966446 H 0.0 **** 0.06
22404 H 21.77088469927662 69.60531963305715 25.360875352536823 H 0.0 **** 0.06
22405 H 21.500106665758594 68.2802134789664 24.204224276051605 H 0.0 **** 0.06
22406 C 14.4300793112956 132.15675458831828 89.6804926556257 C 0.0 **** -0.24
22407 H 15.190752204845744 131.92635996813829 90.42695040192557 H 0.0 **** 0.06
22408 H 14.070895745556506 133.1746703749023 89.83094751747255 H 0.0 **** 0.06
22409 H 13.5991682083177 131.45925016698544 89.78140517704071 H 0.0 **** 0.06
22410 H 14.861116980813165 132.0661689234773 88.68292317187706 H 0.0 **** 0.06
22411 C 97.38420526032701 64.32152078839464 69.43448747782011 C 0.0 **** -0.24
22412 H 96.51328828397999 64.55879270387445 70.04500340183719 H 0.0 **** 0.06
22413 H 97.28448915222168 64.79628272978421 68.45929837986218 H 0.0 **** 0.06
22414 H 97.45535313127078 63.24111958792115 69.30777401593302 H 0.0 **** 0.06
22415 H 98.28431325430012 64.68848850329555 69.92750304449946 H 0.0 **** 0.06
22416 C 93.55817103240172 105.57104387643523 8.846596811876843 C 0.0 **** -0.24
22417 H 94.50436029388644 105.03291054734392 8.891311528556859 H 0.0 **** 0.06
22418 H 93.09744863892006 105.41741912262626 7.8711593008783645 H 0.0 **** 0.06
22419 H 93.73790583475319 106.63529391622366 9.000974097101604 H 0.0 **** 0.06
22420 H 92.89234681691961 105.19893121564147 9.62585247374247 H 0.0 **** 0.06
22421 C 49.583549308159235 24.810613693239937 87.28398118340277 C 0.0 **** -0.24
22422 H 50.23241362677351 25.5987999969283 87.66757937051966 H 0.0 **** 0.06
22423 H 48.96445176079362 25.208504165848815 86.47956680802258 H 0.0 **** 0.06
22424 H 48.94384627977243 24.445273241417134 88.08809218726503 H 0.0 **** 0.06
22425 H 50.193462840844916 23.991608789869908 86.90384900389807 H 0.0 **** 0.06
22426 C 28.552546272555787 116.49146263986734 0.4462029596233208 C 0.0 **** -0.24
22427 H 28.90460074206527 116.85077840396477 -0.5212224555164937 H 0.0 **** 0.06
22428 H 27.87850541356596 115.6480562753541 0.2971000520700784 H 0.0 **** 0.06
22429 H 28.022151394809157 117.29341601252378 0.9608379554800024 H 0.0 **** 0.06
22430 H 29.403952768999886 116.17458805054306 1.0478253452523916 H 0.0 **** 0.06
22431 C 117.83393339404657 33.471304996685504 29.447145712161827 C 0.0 **** -0.24
22432 H 118.84460127235994 33.828138426972075 29.64595822198153 H 0.0 **** 0.06
22433 H 117.44744028001574 32.963763506301405 30.331836529374023 H 0.0 **** 0.06
22434 H 117.85256071224953 32.77507387995371 28.608180065576207 H 0.0 **** 0.06
22435 H 117.19101830709562 34.31741839221729 29.20412640396225 H 0.0 **** 0.06
22436 C 84.2868356101014 74.52001501063648 46.18589875545183 C 0.0 **** -0.24
22437 H 84.64049963514776 75.54462208080986 46.29455926448554 H 0.0 **** 0.06
22438 H 84.51351778844563 74.16177063585047 45.18173481552128 H 0.0 **** 0.06
22439 H 83.20913251211743 74.48861863577909 46.34856528118303 H 0.0 **** 0.06
22440 H 84.78289973073709 73.8841755409735 46.91948831267848 H 0.0 **** 0.06
22441 C 115.83129787804313 100.40378005262863 56.95567757602642 C 0.0 **** -0.24
22442 H 115.17135021688887 100.78348350745011 57.735557967037025 H 0.0 **** 0.06
22443 H 116.80082697831577 100.8981460617658 57.02894224033689 H 0.0 **** 0.06
22444 H 115.39267989911059 100.6050844603136 55.978336353129706 H 0.0 **** 0.06
22445 H 115.96121028447828 99.32868182749087 57.08134242181926 H 0.0 **** 0.06
22446 C 65.63796626920447 2.744478531591369 119.2862472518251 C 0.0 **** -0.24
22447 H 66.62965228341359 3.1450293041607438 119.49871379596505 H 0.0 **** 0.06
22448 H 64.89612008591463 3.2809228844768086 119.87818033634403 H 0.0 **** 0.06
22449 H 65.61181712921147 1.685952718134729 119.54371250441358 H 0.0 **** 0.06
22450 H 65.41684543852068 2.867251537683842 118.22658533825819 H 0.0 **** 0.06
22451 C 10.167167749205365 50.76128859088655 105.17843712104099 C 0.0 **** -0.24
22452 H 10.42520028853535 51.5989140549118 105.82782293531506 H 0.0 **** 0.06
22453 H 11.077068518679901 50.25008343372332 104.86695220316548 H 0.0 **** 0.06
22454 H 9.639728243538865 51.132625628079495 104.29988522908688 H 0.0 **** 0.06
22455 H 9.526151966901487 50.066964023632295 105.72048247309202 H 0.0 **** 0.06
22456 C 100.58577231396222 124.93293256499243 78.35667488504077 C 0.0 **** -0.24
22457 H 100.88386502124014 124.00741905493277 77.86396853572069 H 0.0 **** 0.06
22458 H 99.5116284707391 124.91637503761098 78.54106282430286 H 0.0 **** 0.06
22459 H 100.83317094323652 125.78090925923902 77.71802513124291 H 0.0 **** 0.06
22460 H 101.11638630201854 125.02518787248982 79.30497382145364 H 0.0 **** 0.06
22461 C 110.19232958844083 29.019639495898815 16.394633286135786 C 0.0 **** -0.24
22462 H 109.52579648452357 29.879943070328494 16.31971645859221 H 0.0 **** 0.06
22463 H 109.70791447978638 28.23492213175436 16.9753825474653 H 0.0 **** 0.06
22464 H 111.11704518274615 29.319286677573132 16.88799796564365 H 0.0 **** 0.06
22465 H 110.41806338394872 28.646799485229167 15.395588422424112 H 0.0 **** 0.06
22466 C 32.211381569584546 122.42187371166494 107.85009819713919 C 0.0 **** -0.24
22467 H 32.97982282788023 121.80357110997161 107.38610144423846 H 0.0 **** 0.06
22468 H 31.84002730687199 121.92568587288386 108.7475087857831 H 0.0 **** 0.06
22469 H 31.390025607038496 122.56802020644282 107.1496058128102 H 0.0 **** 0.06
22470 H 32.63674351734495 123.38946615541158 108.11923609413503 H 0.0 **** 0.06
22471 C 88.50013196490393 11.857540175548593 47.47512181495787 C 0.0 **** -0.24
22472 H 87.54443823304187 11.655918401786153 46.9915236323135 H 0.0 **** 0.06
22473 H 89.30901487273478 11.462567936447556 46.85975974788933 H 0.0 **** 0.06
22474 H 88.51978407027498 11.377708416838118 48.45360244198224 H 0.0 **** 0.06
22475 H 88.62601324393819 12.93339728962485 47.59581326150132 H 0.0 **** 0.06
22476 C 45.44926202697434 35.68100993501405 79.33588044494674 C 0.0 **** -0.24
22477 H 45.77326697308064 35.10719306322446 78.4675791962141 H 0.0 **** 0.06
22478 H 45.41858775455847 36.74043000129187 79.080840671913 H 0.0 **** 0.06
22479 H 46.14965759214584 35.52504732649113 80.15653798051221 H 0.0 **** 0.06
22480 H 44.45577245227969 35.35050870066379 79.63901484219862 H 0.0 **** 0.06
22481 C 2.2083777335180983 123.26197977575586 91.19013222721473 C 0.0 **** -0.24
22482 H 1.127423203174839 123.14472034993912 91.27415392943611 H 0.0 **** 0.06
22483 H 2.702210569461897 122.39020328178566 91.61913447376449 H 0.0 **** 0.06
22484 H 2.518511827683188 124.15771859895149 91.72819994003996 H 0.0 **** 0.06
22485 H 2.482434629317151 123.35577205305893 90.13944822318783 H 0.0 **** 0.06
22486 C 81.70388862756893 36.10723773050563 20.338005347738317 C 0.0 **** -0.24
22487 H 80.68921184947723 35.895923467871114 20.676415468737275 H 0.0 **** 0.06
22488 H 81.7518374877802 37.12370608847516 19.946130251712674 H 0.0 **** 0.06
22489 H 81.98032488233703 35.4011329239338 19.555511243124954 H 0.0 **** 0.06
22490 H 82.39373895049798 36.00820708120193 21.17693179802123 H 0.0 **** 0.06
22491 C 121.02249936913759 93.86355500554768 52.55264010977517 C 0.0 **** -0.24
22492 H 120.16772041324307 94.25525956826078 52.002196210709826 H 0.0 **** 0.06
22493 H 121.71192069779636 93.38138980333957 51.858453474686414 H 0.0 **** 0.06
22494 H 120.67809371544065 93.13441982897578 53.28685381055104 H 0.0 **** 0.06
22495 H 121.53179102857644 94.68020420371516 53.06274802044467 H 0.0 **** 0.06
22496 C 29.043070022982533 135.0893543387561 96.08834051091645 C 0.0 **** -0.24
22497 H 28.925926423797414 134.52613765468521 97.01448922084282 H 0.0 **** 0.06
22498 H 30.095062380164087 135.10132117585144 95.80149214691681 H 0.0 **** 0.06
22499 H 28.695410376007636 136.11114475234223 96.23854421845425 H 0.0 **** 0.06
22500 H 28.4564910099185 134.6168585760309 95.30018005959363 H 0.0 **** 0.06
22501 C 56.5981361990266 84.48985141520136 25.913787910629367 C 0.0 **** -0.24
22502 H 57.52262387609579 84.35139073487858 25.352859880736517 H 0.0 **** 0.06
22503 H 56.76648561935369 85.20503797247456 26.719484977486033 H 0.0 **** 0.06
22504 H 56.2823920138964 83.53526295701816 26.335549193801455 H 0.0 **** 0.06
22505 H 55.822556177299276 84.86795883488551 25.24806465640762 H 0.0 **** 0.06
22506 C 100.2612587744893 24.91110537099334 83.61253091067137 C 0.0 **** -0.24
22507 H 100.26321148220885 25.67584062950226 82.83651275148871 H 0.0 **** 0.06
22508 H 99.86782349124576 25.333473485204905 84.53792919403105 H 0.0 **** 0.06
22509 H 101.2796811529197 24.558857794378923 83.77827045004396 H 0.0 **** 0.06
22510 H 99.63547653166205 24.07618347419114 83.2993232923864 H 0.0 **** 0.06
22511 C 59.82675774286051 54.262977000089165 7.996822887626024 C 0.0 **** -0.24
22512 H 60.28417000746063 55.013503664640496 8.642652491938321 H 0.0 **** 0.06
22513 H 60.331877221161236 53.30672273612245 8.138629904780942 H 0.0 **** 0.06
22514 H 59.91885417322247 54.57356626366055 6.956339541648589 H 0.0 **** 0.06
22515 H 58.772846048643316 54.15865701418056 8.253301951782532 H 0.0 **** 0.06
22516 C 6.573735206421816 21.02473751082391 102.7956314379355 C 0.0 **** -0.24
22517 H 6.886995971726549 20.75578700863923 101.7863671378139 H 0.0 **** 0.06
22518 H 6.053164551562588 21.982049830998733 102.77125165804831 H 0.0 **** 0.06
22519 H 7.4493857980383495 21.10258966059598 103.43916550317807 H 0.0 **** 0.06
22520 H 5.904660031460139 20.25729688317466 103.18402212527127 H 0.0 **** 0.06
22521 C 11.281956572094668 18.815858897031887 109.80267373099443 C 0.0 **** -0.24
22522 H 11.208471608728455 19.127071686895817 110.84474360592705 H 0.0 **** 0.06
22523 H 11.31419999035245 19.69849605398008 109.16201142853569 H 0.0 **** 0.06
22524 H 10.413794193973573 18.210070686633344 109.54240501186374 H 0.0 **** 0.06
22525 H 12.189919170447183 18.23042460884227 109.66139517959084 H 0.0 **** 0.06
22526 C 81.01316144199998 4.297946976758908 74.59655651173023 C 0.0 **** -0.24
22527 H 80.40036091393077 3.80442443277326 75.35060362793939 H 0.0 **** 0.06
22528 H 81.00134275525483 5.374695558801079 74.76536666524495 H 0.0 **** 0.06
22529 H 80.61374060463879 4.080863659118165 73.60565141500814 H 0.0 **** 0.06
22530 H 82.037682088905 3.9298625946298102 74.66360473369161 H 0.0 **** 0.06
22531 C 3.9095901375020787 120.81430697063186 21.725884582995008 C 0.0 **** -0.24
22532 H 4.1506707946040535 121.47866385656147 22.55594971602582 H 0.0 **** 0.06
22533 H 3.4648832834201073 121.39233518423562 20.91529017204391 H 0.0 **** 0.06
22534 H 3.2037083300290305 120.05487293724936 22.061503211284418 H 0.0 **** 0.06
22535 H 4.819803801202426 120.33181730754767 21.37133300449554 H 0.0 **** 0.06
22536 C 126.06060311598202 127.85186980640765 58.51008837505134 C 0.0 **** -0.24
22537 H 127.00055431697837 127.77130091085738 59.055638952485964 H 0.0 **** 0.06
22538 H 126.05006612638215 128.78162787014202 57.94099085094598 H 0.0 **** 0.06
22539 H 125.23055045013331 127.84941730693643 59.21638973250964 H 0.0 **** 0.06
22540 H 125.9615626901666 127.00696783957403 57.829685807849216 H 0.0 **** 0.06
22541 C 133.8308047567877 35.57038196517206 66.96702178492968 C 0.0 **** -0.24
22542 H 134.31622552865932 36.12926146325506 66.1664110915744 H 0.0 **** 0.06
22543 H 132.88050730479463 35.17545375562736 66.60890380734729 H 0.0 **** 0.06
22544 H 133.65436501459192 36.23174951536183 67.81528120387743 H 0.0 **** 0.06
22545 H 134.4737288191864 34.746482170254694 67.27685697086345 H 0.0 **** 0.06
22546 C 91.01697833515979 122.89871250505021 35.81466939898769 C 0.0 **** -0.24
22547 H 89.9319285846122 123.00180186637947 35.81058547261017 H 0.0 **** 0.06
22548 H 91.44620231809233 123.60245991556728 36.52767248846558 H 0.0 **** 0.06
22549 H 91.40553720647608 123.1077730580558 34.817482959468634 H 0.0 **** 0.06
22550 H 91.28326243259076 121.88148677853503 36.101809892023084 H 0.0 **** 0.06
22551 C 129.93582654106098 88.42496798309465 58.70358019359986 C 0.0 **** -0.24
22552 H 130.97355487594882 88.14288481623947 58.87889992842122 H 0.0 **** 0.06
22553 H 129.87983098337403 89.07993591197548 57.83358846186195 H 0.0 **** 0.06
22554 H 129.54799199749192 88.94668203996845 59.57811540705495 H 0.0 **** 0.06
22555 H 129.34185372687412 87.5290510750654 58.521912174989126 H 0.0 **** 0.06
22556 C 88.46488971764421 65.12761650129403 10.81393195179809 C 0.0 **** -0.24
22557 H 87.73187462374295 64.52840658594243 10.274084383270441 H 0.0 **** 0.06
22558 H 87.96360359523186 65.69433247497435 11.59921810224337 H 0.0 **** 0.06
22559 H 88.95109896164297 65.81566228982524 10.122069506448941 H 0.0 **** 0.06
22560 H 89.21248274782985 64.47143270708656 11.259193149329757 H 0.0 **** 0.06
22561 C 59.276229789423326 33.20300502707764 62.35654739804397 C 0.0 **** -0.24
22562 H 58.89235709656117 32.304457968759976 62.83900980516944 H 0.0 **** 0.06
22563 H 59.091217617028974 33.14622929338408 61.28329666759436 H 0.0 **** 0.06
22564 H 60.34804396774939 33.282714519793274 62.53707664359837 H 0.0 **** 0.06
22565 H 58.772176328250964 34.07815115322384 62.76608666126532 H 0.0 **** 0.06
22566 C 16.07176660979178 79.85724533870399 66.99020479202376 C 0.0 **** -0.24
22567 H 16.032393141419846 80.42285179754585 66.05882561906654 H 0.0 **** 0.06
22568 H 15.071262965016984 79.79674285895926 67.42106912217255 H 0.0 **** 0.06
22569 H 16.740304812372727 80.35732909770861 67.69104212838849 H 0.0 **** 0.06
22570 H 16.44169927034885 78.85221569015056 66.78888349535943 H 0.0 **** 0.06
22571 C 120.290967042869 15.884544579878138 65.04654382180911 C 0.0 **** -0.24
22572 H 119.46062998488435 15.221685057680475 65.28990298874567 H 0.0 **** 0.06
22573 H 120.87769681071705 15.450463967110295 64.23709261691812 H 0.0 **** 0.06
22574 H 120.92236540539295 16.01372286381445 65.92628537245349 H 0.0 **** 0.06
22575 H 119.90184586490284 16.853668501874097 64.73406725991242 H 0.0 **** 0.06
22576 C 104.29580104029097 33.190070913162685 91.98972286376443 C 0.0 **** -0.24
22577 H 104.40152077067597 33.80714185627755 92.88160223854526 H 0.0 **** 0.06
22578 H 103.23756176694343 33.05059751600169 91.76636681379249 H 0.0 **** 0.06
22579 H 104.76203310923127 32.219508289262365 92.1619812631085 H 0.0 **** 0.06
22580 H 104.78256155009306 33.6825087176594 91.14736051982817 H 0.0 **** 0.06
22581 C 45.570132200351736 83.93066433843131 16.729083178565993 C 0.0 **** -0.24
22582 H 45.723972358373146 83.53576193763925 15.724964983025579 H 0.0 **** 0.06
22583 H 44.592484386594265 83.61763600404734 17.096253573417037 H 0.0 **** 0.06
22584 H 45.61605995890011 85.02008481401353 16.701265824317694 H 0.0 **** 0.06
22585 H 46.34662491215869 83.55110634237667 17.393261512781947 H 0.0 **** 0.06
22586 C 28.999072792535358 72.8592639742227 54.127369797044096 C 0.0 **** -0.24
22587 H 29.431507541599387 73.25624116910848 53.208999310032155 H 0.0 **** 0.06
22588 H 29.79754276713595 72.59213877406626 54.81930178024453 H 0.0 **** 0.06
22589 H 28.40678257783236 71.97370016034293 53.896263521369065 H 0.0 **** 0.06
22590 H 28.359807796259247 73.61501791432255 54.583659512878114 H 0.0 **** 0.06
22591 C 97.44199291271289 47.71571006511839 103.94228218466617 C 0.0 **** -0.24
22592 H 98.37705543542415 48.26122492587808 104.05994513211158 H 0.0 **** 0.06
22593 H 97.56779238489213 46.694644748042876 104.30476287549257 H 0.0 **** 0.06
22594 H 97.16263208100509 47.69566723471898 102.88828126868685 H 0.0 **** 0.06
22595 H 96.65835299856329 48.21066499242565 104.51627537889146 H 0.0 **** 0.06
22596 C 9.41764839887173 57.40391579117633 132.67829978280204 C 0.0 **** -0.24
22597 H 9.33611891285259 57.78014882843647 131.65850926038485 H 0.0 **** 0.06
22598 H 9.789182630396368 58.195526743910264 133.32939386175343 H 0.0 **** 0.06
22599 H 10.107373792377611 56.56099734976725 132.70055693527564 H 0.0 **** 0.06
22600 H 8.436228438639606 57.07934178962179 133.02459396015888 H 0.0 **** 0.06
22601 C 16.2123959427646 136.06019470520764 131.66244879720304 C 0.0 **** -0.24
22602 H 15.201100346432895 136.20467055817636 132.04108444464484 H 0.0 **** 0.06
22603 H 16.929328143263547 136.25159214044248 132.4620057917802 H 0.0 **** 0.06
22604 H 16.39449634899279 136.7490358738765 130.83799666702626 H 0.0 **** 0.06
22605 H 16.325234389457023 135.03455726238428 131.31167769768317 H 0.0 **** 0.06
22606 C 36.855553575474794 75.81831233168089 84.88056230793364 C 0.0 **** -0.24
22607 H 37.435125645898886 76.16238729211159 85.73737075384594 H 0.0 **** 0.06
22608 H 36.02495947021253 75.20273334153921 85.22758399910481 H 0.0 **** 0.06
22609 H 37.49453620192736 75.22830947485357 84.22364230776037 H 0.0 **** 0.06
22610 H 36.467972103889174 76.67836823590937 84.33451880669048 H 0.0 **** 0.06
22611 C 14.932595095080586 122.64084519717974 39.91269522914685 C 0.0 **** -0.24
22612 H 14.117555378029039 122.54042239968041 39.195923588540154 H 0.0 **** 0.06
22613 H 15.209739163984324 123.69130010015935 40.00272153687639 H 0.0 **** 0.06
22614 H 15.791792228781247 122.06608834937026 39.567744670569624 H 0.0 **** 0.06
22615 H 14.610454154304392 122.2651156283277 40.88468938663246 H 0.0 **** 0.06
22616 C 49.79471059938061 50.27605774369576 96.42946679298632 C 0.0 **** -0.24
22617 H 50.13722539082195 50.27819640733304 97.46419289195785 H 0.0 **** 0.06
22618 H 48.906353431634756 50.90143548876543 96.33869069753456 H 0.0 **** 0.06
22619 H 49.555021918177204 49.25698721929899 96.12830305483533 H 0.0 **** 0.06
22620 H 50.582949901202824 50.66893450204026 95.78529613643258 H 0.0 **** 0.06
22621 C 5.096178075515031 93.90595900925038 128.08003615590152 C 0.0 **** -0.24
22622 H 5.516617538658284 94.67799528901674 128.72398232863245 H 0.0 **** 0.06
22623 H 4.234151920941631 93.45326733635738 128.57124006007913 H 0.0 **** 0.06
22624 H 5.849476408892926 93.14185627115484 127.8895114445377 H 0.0 **** 0.06
22625 H 4.784399249351257 94.35169163902967 127.13562499864256 H 0.0 **** 0.06
22626 C 65.57119393305788 101.62424159257853 116.79219833244846 C 0.0 **** -0.24
22627 H 65.46249063125066 100.54192064318957 116.86725199340401 H 0.0 **** 0.06
22628 H 64.65908115735698 102.10567513144015 117.14463426469607 H 0.0 **** 0.06
22629 H 65.74996341454346 101.89918396094346 115.7525343267879 H 0.0 **** 0.06
22630 H 66.41390775731975 101.9478930652838 117.40382995240236 H 0.0 **** 0.06
22631 C 0.6814410256397849 113.60248421150249 33.4970142889502 C 0.0 **** -0.24
22632 H 0.5812213196491776 112.6424125365998 32.99010849814738 H 0.0 **** 0.06
22633 H -0.306153162394196 113.97210609447092 33.772929936857736 H 0.0 **** 0.06
22634 H 1.163994093831871 114.31695633294242 32.83028407774043 H 0.0 **** 0.06
22635 H 1.2862030960016888 113.47719511955805 34.39511759030677 H 0.0 **** 0.06
22636 C 72.66077077476498 125.13633870590007 115.53315158802002 C 0.0 **** -0.24
22637 H 73.1187297534404 124.77256986701808 114.61358111913808 H 0.0 **** 0.06
22638 H 72.29225802840202 124.29048091019602 116.11453533549405 H 0.0 **** 0.06
22639 H 71.82992602638278 125.7977974583951 115.28870862819036 H 0.0 **** 0.06
22640 H 73.40146448729149 125.6833370964367 116.11614955469452 H 0.0 **** 0.06
22641 C 54.59300418572377 0.11010602933940206 62.33844989663616 C 0.0 **** -0.24
22642 H 55.04676469153526 -0.7118452735475032 61.78405513130599 H 0.0 **** 0.06
22643 H 55.09980321901668 1.0407943460481803 62.08578014847549 H 0.0 **** 0.06
22644 H 54.68789389364639 -0.07824554837796072 63.40850211627564 H 0.0 **** 0.06
22645 H 53.53800996590141 0.18682626069481145 62.074817049798725 H 0.0 **** 0.06
22646 C 100.45846148268006 135.6827475159485 119.95695485363484 C 0.0 **** -0.24
22647 H 101.27331991120828 135.2476786446743 120.53571290924356 H 0.0 **** 0.06
22648 H 100.86596372986767 136.19296486217993 119.0835790529402 H 0.0 **** 0.06
22649 H 99.91603970853573 136.3970199686212 120.57512915915319 H 0.0 **** 0.06
22650 H 99.77949220522065 134.892790046346 119.63427695382325 H 0.0 **** 0.06
22651 C 0.30469243302269433 114.27903816402855 102.46402361713086 C 0.0 **** -0.24
22652 H 0.772752173121404 113.8333476443062 103.34175541192717 H 0.0 **** 0.06
22653 H -0.43109105009756377 115.01909260817277 102.78172038286343 H 0.0 **** 0.06
22654 H -0.19029373386462112 113.5003296560613 101.88312272159868 H 0.0 **** 0.06
22655 H 1.0651150775420604 114.76133942624793 101.85139169934878 H 0.0 **** 0.06
22656 C 98.999716646293 27.466706531642444 65.67393603813008 C 0.0 **** -0.24
22657 H 99.82141434221762 26.923425023853383 65.20769667473417 H 0.0 **** 0.06
22658 H 98.62495459914311 26.89754248284717 66.52462678915356 H 0.0 **** 0.06
22659 H 98.19768064260575 27.605252139448567 64.94805554973294 H 0.0 **** 0.06
22660 H 99.35379115569486 28.439044661457842 66.01378127003079 H 0.0 **** 0.06
22661 C 133.16266925452743 89.56024162026509 95.57122855661909 C 0.0 **** -0.24
22662 H 132.58123390970633 90.12211978485047 96.301260655764 H 0.0 **** 0.06
22663 H 132.60454199059723 88.67412035002232 95.26616103717261 H 0.0 **** 0.06
22664 H 134.11020356579542 89.2570036296133 96.01688484222107 H 0.0 **** 0.06
22665 H 133.35409243600634 90.1855794284838 94.69958767717065 H 0.0 **** 0.06
22666 C 131.46836305048436 113.63808198033811 96.83398031580742 C 0.0 **** -0.24
22667 H 130.891936296659 113.12102698269564 97.60137943481868 H 0.0 **** 0.06
22668 H 132.1215074236809 114.37341926218713 97.30509030861549 H 0.0 **** 0.06
22669 H 130.78937905909604 114.14084420441117 96.14578927067993 H 0.0 **** 0.06
22670 H 132.0715232634365 112.9140928369672 96.28525307554264 H 0.0 **** 0.06
22671 C 4.0952440080017 88.90026573517105 17.88875315403775 C 0.0 **** -0.24
22672 H 4.832799888719972 88.1122183045888 17.737976448039028 H 0.0 **** 0.06
22673 H 4.297312146660168 89.41230743840038 18.830316158224107 H 0.0 **** 0.06
22674 H 3.096763717586974 88.46212654753799 17.920063016607422 H 0.0 **** 0.06
22675 H 4.153088426681901 89.61430111708808 17.06763895560467 H 0.0 **** 0.06
22676 C 32.04122845426495 92.73977458649196 134.72349056100774 C 0.0 **** -0.24
22677 H 31.53426533118551 93.67045350465271 134.98037624419416 H 0.0 **** 0.06
22678 H 31.814936389171734 92.4762310968698 133.68993464611222 H 0.0 **** 0.06
22679 H 31.696155814747357 91.94480193523027 135.38452340079658 H 0.0 **** 0.06
22680 H 33.11712239703712 92.86787617302278 134.83904674909508 H 0.0 **** 0.06
22681 C 8.852665525822772 16.541502462820908 67.03527640833599 C 0.0 **** -0.24
22682 H 7.908125493979583 16.401909750766166 66.51073660647853 H 0.0 **** 0.06
22683 H 8.895934780108632 17.551138786132448 67.44360755102397 H 0.0 **** 0.06
22684 H 9.680006479331041 16.393648496856706 66.34055325875175 H 0.0 **** 0.06
22685 H 8.927477099660223 15.81712668078081 67.84687425125708 H 0.0 **** 0.06
22686 C 136.49152097331108 124.50879034547057 45.46801608028227 C 0.0 **** -0.24
22687 H 135.62603337651663 124.13402001274108 44.92213839103621 H 0.0 **** 0.06
22688 H 136.2961282118875 124.45565466735485 46.538889702625795 H 0.0 **** 0.06
22689 H 136.67916206482286 125.5437499066859 45.18401865350876 H 0.0 **** 0.06
22690 H 137.36413778732714 123.90159863066495 45.226247178226515 H 0.0 **** 0.06
22691 C 53.14619994144866 131.309518054418 116.0590951557972 C 0.0 **** -0.24
22692 H 52.10660982036339 131.49922894310103 115.79035129912373 H 0.0 **** 0.06
22693 H 53.44587792972783 131.99315580928416 116.85351544325599 H 0.0 **** 0.06
22694 H 53.78064589677018 131.46490239625166 115.18717827762396 H 0.0 **** 0.06
22695 H 53.24879801519465 130.28154279332273 116.40578309839916 H 0.0 **** 0.06
22696 C 5.1582220576690645 83.52896464713113 101.33372170981204 C 0.0 **** -0.24
22697 H 5.458475761952286 84.06924262216548 102.23223801128063 H 0.0 **** 0.06
22698 H 6.036508873967136 83.33043836448209 100.71857888397318 H 0.0 **** 0.06
22699 H 4.447421487747874 84.13205217021908 100.76830321301054 H 0.0 **** 0.06
22700 H 4.690931952803538 82.58546340651918 101.61585364890067 H 0.0 **** 0.06
22701 C 68.03456954163113 114.5149403572243 44.27195937151737 C 0.0 **** -0.24
22702 H 68.33708623921888 114.13230107523185 45.246809050573944 H 0.0 **** 0.06
22703 H 68.60807670989107 114.01410587164844 43.4916239089619 H 0.0 **** 0.06
22704 H 68.22189440547231 115.5880169234187 44.22933128031477 H 0.0 **** 0.06
22705 H 66.97207634631974 114.32423145841196 44.12181819178804 H 0.0 **** 0.06
22706 C 64.28953437023628 19.99793547284989 80.80165737301888 C 0.0 **** -0.24
22707 H 64.05589050765946 20.30344288521161 81.82112379628484 H 0.0 **** 0.06
22708 H 64.10253896723941 20.829307047167504 80.12209127635253 H 0.0 **** 0.06
22709 H 63.66223744480652 19.150840124764557 80.52328869356342 H 0.0 **** 0.06
22710 H 65.33928367576516 19.70776857918139 80.74137711030795 H 0.0 **** 0.06
22711 C 110.09528591375451 97.10834957193731 1.7989169527262732 C 0.0 **** -0.24
22712 H 109.97266432916115 96.52580795759326 0.885736639180891 H 0.0 **** 0.06
22713 H 111.11568700709216 97.48842904058449 1.853710153887448 H 0.0 **** 0.06
22714 H 109.89566233672005 96.47397176727588 2.663069331612121 H 0.0 **** 0.06
22715 H 109.3960927497612 97.94445020793685 1.7925371488684902 H 0.0 **** 0.06
22716 C 81.86379212792559 77.77163962602623 45.385327964459236 C 0.0 **** -0.24
22717 H 82.08459584751819 78.78540001094564 45.7181096042473 H 0.0 **** 0.06
22718 H 80.84022131311099 77.7268725173522 45.01345063271273 H 0.0 **** 0.06
22719 H 81.97799297089881 77.08171242626395 46.22123206976151 H 0.0 **** 0.06
22720 H 82.55339706885127 77.4929211545595 44.587624906338164 H 0.0 **** 0.06
22721 C 88.8389931331634 91.84752551085153 66.84374793405894 C 0.0 **** -0.24
22722 H 88.4383940004347 90.84232545691832 66.97559730652992 H 0.0 **** 0.06
22723 H 89.29712723884325 91.93002683519224 65.85812389992698 H 0.0 **** 0.06
22724 H 89.58830115651273 92.0438080550321 67.6107823018934 H 0.0 **** 0.06
22725 H 88.03085802942786 92.57352114295661 66.93088025592697 H 0.0 **** 0.06
22726 C 89.16040571255253 59.60898276634339 83.47948979167771 C 0.0 **** -0.24
22727 H 90.02381048699435 59.55089855921477 82.81708548923733 H 0.0 **** 0.06
22728 H 88.56990887917824 60.49068635837162 83.23032853763618 H 0.0 **** 0.06
22729 H 89.49880511071214 59.67682481407516 84.51326701732894 H 0.0 **** 0.06
22730 H 88.54759545983491 58.71489494700273 83.35559173582305 H 0.0 **** 0.06
22731 C 25.997120363135167 96.8206731275282 89.107272824515 C 0.0 **** -0.24
22732 H 26.936670130114777 96.3390197800955 88.83925551270765 H 0.0 **** 0.06
22733 H 26.20396708873261 97.7478614688224 89.64213289403065 H 0.0 **** 0.06
22734 H 25.41712460801483 96.15429511863077 89.7470809318762 H 0.0 **** 0.06
22735 H 25.42993991423276 97.04093465898026 88.20287011535278 H 0.0 **** 0.06
22736 C 133.98432466959278 56.114022725419986 129.28886064797499 C 0.0 **** -0.24
22737 H 134.61889905425926 55.94143305187188 130.15839686815175 H 0.0 **** 0.06
22738 H 133.06852449905443 56.615815757769795 129.600918096564 H 0.0 **** 0.06
22739 H 133.7362330494602 55.16029673097978 128.82501449494762 H 0.0 **** 0.06
22740 H 134.5151328772411 56.740114610511114 128.57055170695412 H 0.0 **** 0.06
22741 C 49.786007216050265 7.004475763419691 41.64091654047942 C 0.0 **** -0.24
22742 H 50.5880047495678 6.694788613738183 40.97178140519941 H 0.0 **** 0.06
22743 H 49.474733622887015 8.018812216439528 41.39079180606704 H 0.0 **** 0.06
22744 H 50.14175700035604 6.976838557173721 42.67072444724478 H 0.0 **** 0.06
22745 H 48.93841765533223 6.326893491261444 41.531024173277025 H 0.0 **** 0.06
22746 C 111.09153269375221 82.67604119042743 91.4309469787944 C 0.0 **** -0.24
22747 H 110.57059144290105 82.1195269889673 90.65128855480359 H 0.0 **** 0.06
22748 H 111.38169322736627 81.99522918094738 92.23166601124751 H 0.0 **** 0.06
22749 H 110.43167674474213 83.44700365261441 91.83004610844574 H 0.0 **** 0.06
22750 H 111.98220387123968 83.14313778284773 91.01010768532569 H 0.0 **** 0.06
22751 C 42.04985661852713 60.94713012798448 132.9090148782231 C 0.0 **** -0.24
22752 H 41.07611760772548 60.9298085098512 133.39864981082607 H 0.0 **** 0.06
22753 H 42.36852182633842 59.927219850853604 132.69600894170003 H 0.0 **** 0.06
22754 H 42.776749019498254 61.42504280297581 133.56583980047844 H 0.0 **** 0.06
22755 H 41.97753008778358 61.509001875323506 131.97761695592308 H 0.0 **** 0.06
22756 C 71.52564720401222 64.06277263510859 84.88184743372345 C 0.0 **** -0.24
22757 H 71.99006716968151 63.07877640989311 84.81490267564601 H 0.0 **** 0.06
22758 H 72.30149756477277 64.82803245274852 84.91575494766775 H 0.0 **** 0.06
22759 H 70.92088784117607 64.11707938372375 85.78715122758426 H 0.0 **** 0.06
22760 H 70.89168817125184 64.22540492654889 84.01018193205192 H 0.0 **** 0.06
22761 C 54.21969375376693 136.48060196324576 90.45179242174217 C 0.0 **** -0.24
22762 H 54.92894167506395 136.756851450056 89.67190611957903 H 0.0 **** 0.06
22763 H 54.44882712469587 137.03426859038433 91.36266467161096 H 0.0 **** 0.06
22764 H 54.293748170918406 135.41118151386235 90.64802159037782 H 0.0 **** 0.06
22765 H 53.20793816995989 136.72011332739044 90.12384421185135 H 0.0 **** 0.06
22766 C 107.29425078296772 111.57338797719069 55.39081237510587 C 0.0 **** -0.24
22767 H 107.88890572753002 112.20933944861883 56.045949189350694 H 0.0 **** 0.06
22768 H 107.9526979403868 110.89791964308577 54.8443812760534 H 0.0 **** 0.06
22769 H 106.74267511902322 112.19425680572434 54.68497723999532 H 0.0 **** 0.06
22770 H 106.59178184635628 110.99193800025438 55.98899164404075 H 0.0 **** 0.06
22771 C 41.276833190334266 52.59725567903146 101.74277394854472 C 0.0 **** -0.24
22772 H 40.86566953407718 51.64689362425676 101.40457222479307 H 0.0 **** 0.06
22773 H 42.33108603358696 52.46972196239473 101.99157552734638 H 0.0 **** 0.06
22774 H 40.73404204568357 52.934204952392534 102.62570713116261 H 0.0 **** 0.06
22775 H 41.17697350822588 53.338876447542404 100.949835255891 H 0.0 **** 0.06
22776 C 68.27263424169676 127.80590039827462 105.628666193007 C 0.0 **** -0.24
22777 H 68.73240909079104 126.99213913677659 105.06720756294192 H 0.0 **** 0.06
22778 H 67.42989654749165 127.41999054940946 106.20200711916304 H 0.0 **** 0.06
22779 H 67.92244468000256 128.57216573194205 104.93679858394844 H 0.0 **** 0.06
22780 H 69.00749252870477 128.23860887478693 106.30787437627319 H 0.0 **** 0.06
22781 C 56.07576537060568 32.35674319948573 50.934517607137195 C 0.0 **** -0.24
22782 H 56.42306044840801 31.879574828615887 51.85063523723858 H 0.0 **** 0.06
22783 H 55.06736827038645 32.74334664763485 51.0866596051772 H 0.0 **** 0.06
22784 H 56.06814714403484 31.627923286994502 50.12533069231576 H 0.0 **** 0.06
22785 H 56.744652061778694 33.177879670557296 50.677874808616764 H 0.0 **** 0.06
22786 C 2.041531331887608 12.526694487796703 40.971553407929946 C 0.0 **** -0.24
22787 H 1.634047830496801 13.248672240992875 40.26352840511032 H 0.0 **** 0.06
22788 H 1.3975890887906814 11.647555059280734 41.0032288783234 H 0.0 **** 0.06
22789 H 2.091232384564666 12.977339222342806 41.96177615926587 H 0.0 **** 0.06
22790 H 3.042396012339122 12.232595123972999 40.654536773852385 H 0.0 **** 0.06
22791 C 17.91929197679903 79.09186987771876 131.7260824125689 C 0.0 **** -0.24
22792 H 17.95750126928595 79.82567575039074 132.5316903144902 H 0.0 **** 0.06
22793 H 17.784432013110326 79.6048156104 130.77349984097015 H 0.0 **** 0.06
22794 H 17.083753864536384 78.41143267758163 131.89535562030275 H 0.0 **** 0.06
22795 H 18.849776532272678 78.52561087264543 131.7062522656684 H 0.0 **** 0.06
22796 C 0.2833147353527643 135.72998640143675 53.41057045698818 C 0.0 **** -0.24
22797 H 0.8450176625341719 136.61649435887398 53.11822226062958 H 0.0 **** 0.06
22798 H -0.5478281014355026 135.5829109620115 52.72078826840206 H 0.0 **** 0.06
22799 H -0.10196100687228693 135.86150271892097 54.42141668498641 H 0.0 **** 0.06
22800 H 0.938030387184714 134.85903756594075 53.38185461393459 H 0.0 **** 0.06
22801 C 109.94448771578365 54.76614033045908 134.927279023113 C 0.0 **** -0.24
22802 H 110.65794928740655 54.136379262618576 134.39557266052284 H 0.0 **** 0.06
22803 H 110.46172401936258 55.31482156651715 135.7141408612564 H 0.0 **** 0.06
22804 H 109.16853223017263 54.14056055457172 135.36911622936793 H 0.0 **** 0.06
22805 H 109.49098017570378 55.46992911080446 134.22980264654245 H 0.0 **** 0.06
22806 C 50.8140970507108 95.01205773672805 79.85126394849067 C 0.0 **** -0.24
22807 H 50.37510505719533 95.5658230965584 79.02049256906766 H 0.0 **** 0.06
22808 H 50.02542150363794 94.50321265922209 80.40522118188336 H 0.0 **** 0.06
22809 H 51.33474268857344 95.70407053733264 80.51328696262583 H 0.0 **** 0.06
22810 H 51.519943734205285 94.27682152584119 79.46519501250245 H 0.0 **** 0.06
22811 C 3.563285272307194 58.22033571575969 59.83402522291098 C 0.0 **** -0.24
22812 H 2.6270207116119977 58.49370468748103 60.320135413516525 H 0.0 **** 0.06
22813 H 3.7719864718380016 58.92299843482411 59.027833599134794 H 0.0 **** 0.06
22814 H 3.4783513333315454 57.21244925238523 59.42594896403703 H 0.0 **** 0.06
22815 H 4.3731833676152085 58.250692713705604 60.56221787891481 H 0.0 **** 0.06
22816 C 98.74194872699331 104.77216876186962 90.86334505008631 C 0.0 **** -0.24
22817 H 98.61703301871646 105.85427875595234 90.82596749103615 H 0.0 **** 0.06
22818 H 99.5882471449539 104.52619763833538 91.5051357323887 H 0.0 **** 0.06
22819 H 98.92725359927587 104.39315391123758 89.85822569586499 H 0.0 **** 0.06
22820 H 97.83690724736715 104.31556270155833 91.26262920628076 H 0.0 **** 0.06
22821 C 72.38896079005356 78.38003499217663 25.337718129655855 C 0.0 **** -0.24
22822 H 71.7273406831232 77.61080051826953 25.734476448351643 H 0.0 **** 0.06
22823 H 72.64351204375558 78.14324722101931 24.304977484188896 H 0.0 **** 0.06
22824 H 73.29795128360043 78.42137394802131 25.937071442201102 H 0.0 **** 0.06
22825 H 71.88541173578001 79.34625143198758 25.37634749140193 H 0.0 **** 0.06
22826 C 83.65546305481962 4.743589069823049 5.9366111637885695 C 0.0 **** -0.24
22827 H 82.59541609306777 4.594689561995185 6.145442438250541 H 0.0 **** 0.06
22828 H 84.24152916138002 4.010711928238653 6.490757945316261 H 0.0 **** 0.06
22829 H 83.94692377760458 5.749033763119009 6.241172654975969 H 0.0 **** 0.06
22830 H 83.83452657457968 4.62112731377902 4.8682987340113755 H 0.0 **** 0.06
22831 C 129.55131937228407 111.31834748389485 91.82485631018903 C 0.0 **** -0.24
22832 H 130.22557877655865 110.5649139720297 91.41750232840172 H 0.0 **** 0.06
22833 H 129.85689498749423 112.30575920405283 91.47814934238039 H 0.0 **** 0.06
22834 H 129.58825344517058 111.28671219880209 92.91396198183713 H 0.0 **** 0.06
22835 H 128.5342796889912 111.11380779442851 91.49012975516462 H 0.0 **** 0.06
22836 C 76.22173426137067 59.4066115470728 41.11260845703748 C 0.0 **** -0.24
22837 H 76.57794666503497 60.37680675027195 40.76632670493649 H 0.0 **** 0.06
22838 H 76.1813066787627 58.71370142796289 40.271164865773756 H 0.0 **** 0.06
22839 H 75.22508667424171 59.518394614557096 41.539750355798816 H 0.0 **** 0.06
22840 H 76.90225131457007 59.01906722920016 41.87063088024695 H 0.0 **** 0.06
22841 C 61.66458285378256 94.37434878992093 88.23242831476232 C 0.0 **** -0.24
22842 H 61.32166884974008 93.43242653521561 88.66135551773986 H 0.0 **** 0.06
22843 H 62.70525195518121 94.5419887797591 88.51078912232227 H 0.0 **** 0.06
22844 H 61.05110578011609 95.19120784229194 88.61231674892637 H 0.0 **** 0.06
22845 H 61.580874256863964 94.33092170674247 87.14664932827385 H 0.0 **** 0.06
22846 C 36.657676700010626 6.412450069029063 63.02921920190775 C 0.0 **** -0.24
22847 H 37.210863795527956 5.610214404069865 63.51846155149737 H 0.0 **** 0.06
22848 H 36.921204495569555 6.442694458785837 61.971701605063856 H 0.0 **** 0.06
22849 H 36.91029338223754 7.364605126228383 63.49512755356713 H 0.0 **** 0.06
22850 H 35.58765789629243 6.23011005373877 63.132476041933245 H 0.0 **** 0.06
22851 C 83.78967875265846 67.54507640714354 62.087272892156705 C 0.0 **** -0.24
22852 H 83.0951779739893 66.70853287246979 62.16848664747903 H 0.0 **** 0.06
22853 H 84.51642979892888 67.49312112160362 62.89824369753802 H 0.0 **** 0.06
22854 H 83.2383955914574 68.48289084109211 62.15225753421083 H 0.0 **** 0.06
22855 H 84.30812391688522 67.49360465275419 61.130180262201975 H 0.0 **** 0.06
22856 C 41.52162994803996 133.02189474618257 100.4766841462221 C 0.0 **** -0.24
22857 H 40.52209988121439 133.0520568561945 100.04194860079295 H 0.0 **** 0.06
22858 H 41.61093608323591 133.79976089489122 101.2346351372104 H 0.0 **** 0.06
22859 H 42.261906592162006 133.1894748294743 99.69427538168783 H 0.0 **** 0.06
22860 H 41.68962565039419 132.04597243943925 100.93286194798723 H 0.0 **** 0.06
22861 C 14.332533732091107 76.08526187693974 48.00226827312761 C 0.0 **** -0.24
22862 H 14.995838858244568 75.24460556737625 48.20589131297294 H 0.0 **** 0.06
22863 H 13.6499225987491 75.82131358403765 47.19357459123937 H 0.0 **** 0.06
22864 H 14.924320911359402 76.95337242205713 47.71071362717936 H 0.0 **** 0.06
22865 H 13.759794329939837 76.32082377844574 48.89914742931737 H 0.0 **** 0.06
22866 C 6.285619698105364 122.25889179795666 9.040119539628336 C 0.0 **** -0.24
22867 H 6.83208446708862 121.34720031556455 9.284254788020803 H 0.0 **** 0.06
22868 H 6.092261735323085 122.29033763786828 7.96765604833314 H 0.0 **** 0.06
22869 H 6.880047793776349 123.12609358149675 9.32918943879423 H 0.0 **** 0.06
22870 H 5.339439167879256 122.27056622429978 9.580891359459088 H 0.0 **** 0.06
22871 C 92.79457042887606 32.035556473138115 30.887538307134776 C 0.0 **** -0.24
22872 H 92.57262186175714 33.10038865082376 30.958427877312886 H 0.0 **** 0.06
22873 H 93.86947844477703 31.881201300876626 30.983268733738385 H 0.0 **** 0.06
22874 H 92.45705789014335 31.658496488640935 29.921569277448498 H 0.0 **** 0.06
22875 H 92.27833001710471 31.5028001241474 31.68549665436319 H 0.0 **** 0.06
22876 C 7.161719593474459 87.66839253127239 105.30354575294463 C 0.0 **** -0.24
22877 H 7.4734613648416826 86.63113116468435 105.42652539587553 H 0.0 **** 0.06
22878 H 6.383816213932789 87.72459693688853 104.54165830099045 H 0.0 **** 0.06
22879 H 8.015929530508572 88.27070302212167 104.99597548576659 H 0.0 **** 0.06
22880 H 6.772158696295492 88.04460216967362 106.24949748418801 H 0.0 **** 0.06
22881 C 40.90074605654158 46.9284760899007 94.88414874053898 C 0.0 **** -0.24
22882 H 41.81230618801132 46.54847000173484 94.42339008318811 H 0.0 **** 0.06
22883 H 40.643604371512765 47.890963735791985 94.44255988256064 H 0.0 **** 0.06
22884 H 41.05953515539892 47.05012913790898 95.95581223117425 H 0.0 **** 0.06
22885 H 40.0865508677451 46.22224928617376 94.71563746763603 H 0.0 **** 0.06
22886 C 109.76494548067174 98.93507672332602 109.68903574915518 C 0.0 **** -0.24
22887 H 110.01626359357337 97.88571327679387 109.53728730507211 H 0.0 **** 0.06
22888 H 108.91060553636915 99.19776658774448 109.06580760464908 H 0.0 **** 0.06
22889 H 110.61914096561398 99.55588650397705 109.41747473587489 H 0.0 **** 0.06
22890 H 109.51452520521144 99.10032563138651 110.73758694465383 H 0.0 **** 0.06
22891 C 93.12460298470751 36.178531669505844 53.53917745677295 C 0.0 **** -0.24
22892 H 93.04114040907612 37.2625047594623 53.62215597912761 H 0.0 **** 0.06
22893 H 93.43857551468847 35.76452581226698 54.497556024683604 H 0.0 **** 0.06
22894 H 93.86096761963938 35.92872309594429 52.77548979062435 H 0.0 **** 0.06
22895 H 92.15755220717966 35.75976238502186 53.261704726366716 H 0.0 **** 0.06
22896 C 13.347929577592861 28.719994423931638 30.705648255321506 C 0.0 **** -0.24
22897 H 12.265425524721227 28.600008679947706 30.663678592352312 H 0.0 **** 0.06
22898 H 13.751288876902287 28.73325231969767 29.692333082771874 H 0.0 **** 0.06
22899 H 13.784905623889912 27.888837365576023 31.2589058175015 H 0.0 **** 0.06
22900 H 13.590289250699044 29.657016659560355 31.205621371261095 H 0.0 **** 0.06
22901 C 97.61219559356374 74.9271925272763 121.58524448712723 C 0.0 **** -0.24
22902 H 97.26524657407188 74.93405153276728 122.6180539313379 H 0.0 **** 0.06
22903 H 98.68343514222263 74.72524784197296 121.5627885413358 H 0.0 **** 0.06
22904 H 97.41556439706801 75.89728982171607 121.1292966256886 H 0.0 **** 0.06
22905 H 97.08412379727204 74.15140847881196 121.03035587387791 H 0.0 **** 0.06
22906 C 105.24111433974224 15.195968616342903 10.04293616441202 C 0.0 **** -0.24
22907 H 105.51743219054543 16.23376358860893 9.856586754915217 H 0.0 **** 0.06
22908 H 105.17636389541397 14.661200004357376 9.095460590512388 H 0.0 **** 0.06
22909 H 104.2760007894268 15.162150185818895 10.547164437933056 H 0.0 **** 0.06
22910 H 105.9964511584763 14.727149093220703 10.673814613513926 H 0.0 **** 0.06
22911 C 6.781641149296007 6.8733724980170905 20.638503394601713 C 0.0 **** -0.24
22912 H 6.629479324187244 7.207508207263913 19.611885550235485 H 0.0 **** 0.06
22913 H 7.67915411638489 6.256921263182107 20.689868892982474 H 0.0 **** 0.06
22914 H 5.919927366049883 6.290294846272161 20.96301973861847 H 0.0 **** 0.06
22915 H 6.898619603145956 7.740908659639331 21.289070207534905 H 0.0 **** 0.06
22916 C 125.66858888888865 64.99766247985723 93.06394982717893 C 0.0 **** -0.24
22917 H 125.76756955043565 65.83864078155008 92.37711111365735 H 0.0 **** 0.06
22918 H 124.6991063431139 64.52218537284097 92.9189149163413 H 0.0 **** 0.06
22919 H 125.74926298713106 65.35623897292938 94.08965719612354 H 0.0 **** 0.06
22920 H 126.46099040617159 64.2750750590129 92.86833969076773 H 0.0 **** 0.06
22921 C 38.86921151775266 20.162042608180712 68.91711691049375 C 0.0 **** -0.24
22922 H 38.336654643181646 20.265304566358594 67.97160106534847 H 0.0 **** 0.06
22923 H 38.201472123826704 20.42000896120925 69.73935868939246 H 0.0 **** 0.06
22924 H 39.72926416962403 20.831530782694074 68.92390476937494 H 0.0 **** 0.06
22925 H 39.20815082787175 19.133584350556333 69.03212001047085 H 0.0 **** 0.06
22926 C 77.12876448955595 124.14145270421645 34.798633053977795 C 0.0 **** -0.24
22927 H 77.72373466948925 125.03418194539327 34.99046379353817 H 0.0 **** 0.06
22928 H 77.10435650869087 123.94481267997793 33.726635839018684 H 0.0 **** 0.06
22929 H 76.11334100049687 124.29594849441622 35.16370189186287 H 0.0 **** 0.06
22930 H 77.5755513219876 123.2913065997421 35.31404666007538 H 0.0 **** 0.06
22931 C 59.564853805387855 110.89497328561495 3.60692892588753 C 0.0 **** -0.24
22932 H 59.23791293029517 110.0088413988882 4.1501240682314915 H 0.0 **** 0.06
22933 H 58.8869922598232 111.08096697846088 2.773476970285884 H 0.0 **** 0.06
22934 H 60.573846043416324 110.7353763385658 3.225803524021188 H 0.0 **** 0.06
22935 H 59.56109978145359 111.7549654411431 4.276654588381291 H 0.0 **** 0.06
22936 C 80.71353692732794 3.273878090239805 60.49897387090759 C 0.0 **** -0.24
22937 H 80.02196736777091 3.686046408127737 61.23312156621657 H 0.0 **** 0.06
22938 H 81.17492782703403 4.086979015853416 59.937303639809386 H 0.0 **** 0.06
22939 H 80.16962713777014 2.6212375528483562 59.81481043067886 H 0.0 **** 0.06
22940 H 81.48638950402733 2.7000049907592256 61.009698447335865 H 0.0 **** 0.06
22941 C 115.14509358616573 136.06323876676703 70.05207676058467 C 0.0 **** -0.24
22942 H 116.11530115597012 136.3620988379219 70.44941919437156 H 0.0 **** 0.06
22943 H 114.63526183806087 136.93616251276976 69.64523434186304 H 0.0 **** 0.06
22944 H 114.54351099368256 135.6298889822986 70.85064383864272 H 0.0 **** 0.06
22945 H 115.28811374806298 135.32456365186272 69.26220116426379 H 0.0 **** 0.06
22946 C 81.37330479119208 134.78040379942797 128.30668391291084 C 0.0 **** -0.24
22947 H 81.70879941219123 135.73755769891528 127.9075588333593 H 0.0 **** 0.06
22948 H 81.20853049881805 134.87187768593643 129.37990149847758 H 0.0 **** 0.06
22949 H 82.13418003982066 134.02177415012338 128.1190724934737 H 0.0 **** 0.06
22950 H 80.44317502662506 134.49034271973326 127.81884355567104 H 0.0 **** 0.06
22951 C 5.5465435920583275 12.418571309368915 15.453774766371282 C 0.0 **** -0.24
22952 H 6.580010803441041 12.563885136295433 15.13803672351088 H 0.0 **** 0.06
22953 H 5.5290778590334355 12.04115724515604 16.47663725736254 H 0.0 **** 0.06
22954 H 5.062391148129848 11.701199755443579 14.791981388322426 H 0.0 **** 0.06
22955 H 5.0166896407423565 13.370042390004269 15.40829251446715 H 0.0 **** 0.06
22956 C 117.05281960909423 122.39970058356855 36.918591885952395 C 0.0 **** -0.24
22957 H 117.56707465933377 122.58655881096666 35.975949429399236 H 0.0 **** 0.06
22958 H 116.07594917515641 122.882586942329 36.90067634679377 H 0.0 **** 0.06
22959 H 117.64395529113273 122.80452530194604 37.740266780228325 H 0.0 **** 0.06
22960 H 116.92553119565912 121.32653314698952 37.05588832299776 H 0.0 **** 0.06
22961 C 40.165926741970615 44.46925135491807 29.92701995961704 C 0.0 **** -0.24
22962 H 41.02474428654906 43.82162124053042 29.751644061802892 H 0.0 **** 0.06
22963 H 39.72716789257822 44.23731375759684 30.89783390495819 H 0.0 **** 0.06
22964 H 39.42391474774745 44.30815218194857 29.14479215824707 H 0.0 **** 0.06
22965 H 40.48740110478333 45.51131099996212 29.911852389588944 H 0.0 **** 0.06
22966 C 96.11059870089196 100.55267557950782 43.23606382763239 C 0.0 **** -0.24
22967 H 97.11669968393636 100.46393224252273 42.82527004810578 H 0.0 **** 0.06
22968 H 96.04367951910837 101.45659527086946 43.842723654257554 H 0.0 **** 0.06
22969 H 95.8933726933812 99.68208765346361 43.854663513543414 H 0.0 **** 0.06
22970 H 95.39002897976889 100.60777203863137 42.42060832404479 H 0.0 **** 0.06
22971 C 105.63286746973965 64.88026507913548 9.03877086153436 C 0.0 **** -0.24
22972 H 105.15274159154478 64.09321982188658 8.458356434109067 H 0.0 **** 0.06
22973 H 104.96144333121967 65.20818114791894 9.832277468172709 H 0.0 **** 0.06
22974 H 105.8644623913595 65.72232582727298 8.385762746860326 H 0.0 **** 0.06
22975 H 106.55473564734973 64.4976861349993 9.477198154777291 H 0.0 **** 0.06
22976 C 125.41577720910016 31.45223826100161 16.80577993865748 C 0.0 **** -0.24
22977 H 125.75328697288589 32.345650893054874 17.331059946058474 H 0.0 **** 0.06
22978 H 125.46151417336176 31.624157179672103 15.729779409544506 H 0.0 **** 0.06
22979 H 124.38925562192688 31.227654986312807 17.095071893370687 H 0.0 **** 0.06
22980 H 126.05914760960727 30.612453277726637 17.066957537034227 H 0.0 **** 0.06
22981 C 21.054538511342173 68.9207733717924 39.725501906202 C 0.0 **** -0.24
22982 H 20.07559052758137 68.76477213240796 40.18035747473206 H 0.0 **** 0.06
22983 H 21.046614479776366 69.85063826927049 39.15670268804641 H 0.0 **** 0.06
22984 H 21.28022765759158 68.08814718660312 39.058402094453925 H 0.0 **** 0.06
22985 H 21.813433792008738 68.97716817045978 40.506143731963064 H 0.0 **** 0.06
22986 C 41.21458840882549 120.90385651689701 62.88075596209225 C 0.0 **** -0.24
22987 H 40.655585502797344 121.63588484830495 62.298269641662756 H 0.0 **** 0.06
22988 H 42.21073984971195 121.2922329853501 63.09248003204024 H 0.0 **** 0.06
22989 H 41.298377670678114 119.9755883568281 62.313556921433516 H 0.0 **** 0.06
22990 H 40.69262990148871 120.71033786981616 63.81849737892398 H 0.0 **** 0.06
22991 C 36.55533880645169 101.0908881701571 107.52944684035788 C 0.0 **** -0.24
22992 H 36.453287375393955 101.58475742952443 106.56375399817051 H 0.0 **** 0.06
22993 H 35.8212118653276 100.28844974858245 107.60699882965156 H 0.0 **** 0.06
22994 H 36.38941163509111 101.81480229299916 108.32691818938775 H 0.0 **** 0.06
22995 H 37.55980944635357 100.67500948893321 107.61976743216667 H 0.0 **** 0.06
22996 C 13.756248769080642 106.38304959050257 50.229819140915765 C 0.0 **** -0.24
22997 H 14.444705107872942 106.42902666382903 49.386609206683715 H 0.0 **** 0.06
22998 H 13.85273773722097 107.28937929497775 50.82726486089217 H 0.0 **** 0.06
22999 H 13.992964737951837 105.51455037520859 50.84488885216456 H 0.0 **** 0.06
23000 H 12.734327410670431 106.2979053120391 49.85944327644785 H 0.0 **** 0.06
23001 C 125.0523276261855 42.58600950124297 97.71404691618758 C 0.0 **** -0.24
23002 H 125.40759400427663 42.0418092617775 96.83803034143608 H 0.0 **** 0.06
23003 H 124.66537729058486 43.557594008839516 97.40485910931908 H 0.0 **** 0.06
23004 H 125.87724111705612 42.72715405647574 98.41204905528349 H 0.0 **** 0.06
23005 H 124.25893629614728 42.01634008002142 98.19830410831717 H 0.0 **** 0.06
23006 C 133.5471935802092 41.88870472422063 86.77767599518373 C 0.0 **** -0.24
23007 H 132.56997018978356 42.061837620084624 87.2283626994619 H 0.0 **** 0.06
23008 H 133.98124990069442 40.97814200220282 87.18939878148738 H 0.0 **** 0.06
23009 H 134.20087571378878 42.7341111655337 86.9937007757034 H 0.0 **** 0.06
23010 H 133.43522373642864 41.783296229075 85.69870433088138 H 0.0 **** 0.06
23011 C 73.22885099491256 75.71135070182589 42.18301154986591 C 0.0 **** -0.24
23012 H 73.57962422513921 74.80998481539103 41.680048570312664 H 0.0 **** 0.06
23013 H 72.48444042895412 75.44231090417554 42.93309328345609 H 0.0 **** 0.06
23014 H 72.78232153515472 76.38518040891233 41.45219967097978 H 0.0 **** 0.06
23015 H 74.07032419218481 76.20653883636749 42.66787405037297 H 0.0 **** 0.06
23016 C 14.057556640598094 104.29453262610599 104.38111395933451 C 0.0 **** -0.24
23017 H 14.771112665735743 104.92592461058894 103.85118278652286 H 0.0 **** 0.06
23018 H 13.240990809124423 104.02814276205339 103.71032954823991 H 0.0 **** 0.06
23019 H 13.66109194508028 104.83668739965611 105.23924563975035 H 0.0 **** 0.06
23020 H 14.558691497313397 103.38909990335986 104.72317754237822 H 0.0 **** 0.06
23021 C 6.778474586479803 113.35368667446895 115.35663810694791 C 0.0 **** -0.24
23022 H 7.545114416380187 113.91030989112531 115.89621855140388 H 0.0 **** 0.06
23023 H 5.960025891928552 114.0240096683699 115.09319759605978 H 0.0 **** 0.06
23024 H 6.4020220130580014 112.54886372338768 115.98776053874292 H 0.0 **** 0.06
23025 H 7.208823510476719 112.93122840588299 114.4474967678799 H 0.0 **** 0.06
23026 C 89.382284223094 89.26352167683977 5.545670914628886 C 0.0 **** -0.24
23027 H 89.85951958924001 90.23351482015752 5.68365551336899 H 0.0 **** 0.06
23028 H 88.65976929831479 89.32654084933964 4.731131846970555 H 0.0 **** 0.06
23029 H 88.87087334585706 88.97677825855854 6.464847292618003 H 0.0 **** 0.06
23030 H 90.13897465896376 88.51725277930342 5.303049005557995 H 0.0 **** 0.06
23031 C 47.34291698690235 135.97813573699153 93.50489564404901 C 0.0 **** -0.24
23032 H 46.749055019751665 136.87779176684808 93.66633000935576 H 0.0 **** 0.06
23033 H 47.42990304155171 135.78639758487685 92.43590830967887 H 0.0 **** 0.06
23034 H 46.85579584850991 135.13040214244973 93.98753510276049 H 0.0 **** 0.06
23035 H 48.335938555883246 136.11655635272476 93.9322794874088 H 0.0 **** 0.06
23036 C 18.07480178595037 71.9240833988075 117.60104077027626 C 0.0 **** -0.24
23037 H 17.856126586037817 70.91612678934104 117.25095419343256 H 0.0 **** 0.06
23038 H 17.242410705086456 72.28869525762391 118.2020426775882 H 0.0 **** 0.06
23039 H 18.22058586613923 72.5831112955278 116.74383986035207 H 0.0 **** 0.06
23040 H 18.98231612915521 71.9094967164927 118.20513185289192 H 0.0 **** 0.06
23041 C 57.18470859322869 1.9517646359384457 89.47831326426625 C 0.0 **** -0.24
23042 H 57.034903295793654 0.8916877766712332 89.27480782268667 H 0.0 **** 0.06
23043 H 56.34031782541746 2.3333608712306955 90.05288844317431 H 0.0 **** 0.06
23044 H 57.25807004130283 2.4946136487358217 88.5362681050973 H 0.0 **** 0.06
23045 H 58.103878711938606 2.086871567830258 90.04789069174062 H 0.0 **** 0.06
23046 C 63.73670685084562 124.89770383157622 115.82002304893288 C 0.0 **** -0.24
23047 H 63.660106436568725 125.82291538959538 116.39074188355337 H 0.0 **** 0.06
23048 H 63.182989110172926 124.10930777087952 116.32990772156282 H 0.0 **** 0.06
23049 H 64.78481613883206 124.61007719285061 115.73627397713602 H 0.0 **** 0.06
23050 H 63.3210466939442 125.04945769143416 114.82392392844946 H 0.0 **** 0.06
23051 C 61.54673099842944 14.563480763181985 83.54830477544806 C 0.0 **** -0.24
23052 H 61.9739064558172 15.09196212317147 84.40050289704644 H 0.0 **** 0.06
23053 H 62.23199649822442 13.77741448578837 83.2280499479396 H 0.0 **** 0.06
23054 H 61.38974379214969 15.264510788925236 82.72902402677286 H 0.0 **** 0.06
23055 H 60.59383003097554 14.121013649882173 83.83636831070109 H 0.0 **** 0.06
23056 C 117.83889082967943 121.93431231238061 3.0257467678585215 C 0.0 **** -0.24
23057 H 117.42363663085405 121.18146336704308 3.695068391822957 H 0.0 **** 0.06
23058 H 118.73248628965868 122.36819704574899 3.4759870570185853 H 0.0 **** 0.06
23059 H 117.09970909085345 122.71780778651068 2.8570775983698695 H 0.0 **** 0.06
23060 H 118.09999090558165 121.47072782830459 2.074663586929404 H 0.0 **** 0.06
23061 C 62.39759768184885 39.07565675268262 57.399625445030836 C 0.0 **** -0.24
23062 H 63.00681073522924 38.96008634245669 56.503623234475356 H 0.0 **** 0.06
23063 H 61.584993894778336 39.77457284654969 57.198373123711804 H 0.0 **** 0.06
23064 H 63.01473650713396 39.45965422957477 58.21213309887503 H 0.0 **** 0.06
23065 H 61.98257655827797 38.108415640911744 57.68376481311776 H 0.0 **** 0.06
23066 C 37.188192878012956 35.20045322825018 14.772646704536555 C 0.0 **** -0.24
23067 H 36.81855722034439 34.76856606754322 13.84320387534963 H 0.0 **** 0.06
23068 H 36.434073293937004 35.86794980323947 15.188805335656099 H 0.0 **** 0.06
23069 H 38.10105185960592 35.76234520977539 14.574389412905916 H 0.0 **** 0.06
23070 H 37.401043739144825 34.40268836273913 15.483856073610482 H 0.0 **** 0.06
23071 C 10.317621481504819 90.50176457681368 20.859118175906637 C 0.0 **** -0.24
23072 H 11.02895252850394 90.09795121211448 20.138288795687195 H 0.0 **** 0.06
23073 H 9.754549679509463 89.68445506639017 21.310613921690162 H 0.0 **** 0.06
23074 H 9.631743157409272 91.18060305138533 20.352136598228626 H 0.0 **** 0.06
23075 H 10.857451963253226 91.04387929416615 21.6364731879926 H 0.0 **** 0.06
23076 C 62.498680583787575 34.30307209792181 121.10924430043964 C 0.0 **** -0.24
23077 H 63.443454134979305 34.81554828666958 121.29016734562153 H 0.0 **** 0.06
23078 H 61.73645675003996 34.699826045410475 121.7808649208731 H 0.0 **** 0.06
23079 H 62.6230735899689 33.23624196429813 121.28987602794984 H 0.0 **** 0.06
23080 H 62.191127301394545 34.46353617982214 120.07541725172086 H 0.0 **** 0.06
23081 C 132.18310211245583 74.41127821583207 136.50892580029844 C 0.0 **** -0.24
23082 H 131.5666782853305 75.26374189291121 136.79521486942272 H 0.0 **** 0.06
23083 H 131.75612053853607 73.49849645324176 136.9240598005637 H 0.0 **** 0.06
23084 H 133.1938403098633 74.54863983074584 136.89523813352508 H 0.0 **** 0.06
23085 H 132.2172353390019 74.33654208099385 135.4224261663802 H 0.0 **** 0.06
23086 C 114.44802331268079 86.14922494174891 60.510706997075616 C 0.0 **** -0.24
23087 H 114.1228956849188 85.16485330121156 60.17296657680522 H 0.0 **** 0.06
23088 H 114.3329564096968 86.21830947589143 61.59241028194026 H 0.0 **** 0.06
23089 H 113.84077607922694 86.91579316922719 60.03051020489649 H 0.0 **** 0.06
23090 H 115.49487931820241 86.29665750022843 60.24689235309806 H 0.0 **** 0.06
23091 C 40.69515942746716 76.77108756333868 19.058154098214615 C 0.0 **** -0.24
23092 H 40.61469778300551 77.23532089178117 18.075117774511455 H 0.0 **** 0.06
23093 H 41.56880475700626 77.16827861223358 19.57585692207425 H 0.0 **** 0.06
23094 H 40.79898794940151 75.69187901269673 18.94314265637459 H 0.0 **** 0.06
23095 H 39.7984907659191 76.99038585456212 19.6377312101761 H 0.0 **** 0.06
23096 C 77.1603891073859 25.658778785601385 10.05332203242882 C 0.0 **** -0.24
23097 H 76.59314007859774 25.045845797402222 10.752872383831676 H 0.0 **** 0.06
23098 H 76.56410052165819 26.523269884405664 9.761013743293098 H 0.0 **** 0.06
23099 H 77.40389151639764 25.069169904803687 9.169016064649963 H 0.0 **** 0.06
23100 H 78.08118485129603 25.996180612920597 10.53040831709244 H 0.0 **** 0.06
23101 C 63.42728957216866 2.179102846558294 125.38097608012392 C 0.0 **** -0.24
23102 H 63.02723469085424 1.289414897172918 124.89490767459532 H 0.0 **** 0.06
23103 H 62.67735345372944 2.5914927943451573 126.05669899372482 H 0.0 **** 0.06
23104 H 63.6830941140833 2.921372954154947 124.62545629597487 H 0.0 **** 0.06
23105 H 64.32020382734271 1.9135716210442126 125.94657871873207 H 0.0 **** 0.06
23106 C 120.6158435550241 57.84658482117641 67.04296364283354 C 0.0 **** -0.24
23107 H 121.10094117170496 58.5042586021151 67.76551097461342 H 0.0 **** 0.06
23108 H 119.67303188849152 58.29168225702267 66.7239706547093 H 0.0 **** 0.06
23109 H 120.42261966699627 56.879511934622485 67.50647048277074 H 0.0 **** 0.06
23110 H 121.26682390282392 57.712103247430406 66.17984181108399 H 0.0 **** 0.06
23111 C 116.36836682715912 64.47267110661534 8.932829820768063 C 0.0 **** -0.24
23112 H 117.35962195097702 64.91120638029172 9.047237643230346 H 0.0 **** 0.06
23113 H 115.77176848388564 64.6866514887182 9.820241746756267 H 0.0 **** 0.06
23114 H 116.46014527380541 63.39375970825775 8.807283099502172 H 0.0 **** 0.06
23115 H 115.88092413568341 64.90003423232008 8.056778780732941 H 0.0 **** 0.06
23116 C 39.83563734450186 44.61065909515753 61.912255617152425 C 0.0 **** -0.24
23117 H 40.59547164786059 43.85653996312496 62.11827805745719 H 0.0 **** 0.06
23118 H 38.97865010512318 44.141484699959335 61.43081066843287 H 0.0 **** 0.06
23119 H 40.250131577988924 45.37429620800373 61.25336640223054 H 0.0 **** 0.06
23120 H 39.51927801256079 45.07229819962012 62.84832945698098 H 0.0 **** 0.06
23121 C 42.76169008833398 80.76211985852743 18.668529932551905 C 0.0 **** -0.24
23122 H 42.98808599811406 81.33886060908483 17.77161741095091 H 0.0 **** 0.06
23123 H 43.691484222380865 80.41776206209424 19.122275102264553 H 0.0 **** 0.06
23124 H 42.146152065735265 79.9029942195958 18.402212204728755 H 0.0 **** 0.06
23125 H 42.22237768019815 81.39055009897143 19.377416827954846 H 0.0 **** 0.06
23126 C 73.91805543811392 65.0624345473893 11.473788566328096 C 0.0 **** -0.24
23127 H 73.85564705968343 65.04841548750414 10.38578686141068 H 0.0 **** 0.06
23128 H 74.05511634967456 66.08850064894754 11.816300991105663 H 0.0 **** 0.06
23129 H 74.76294316416974 64.4550213842937 11.797927471587684 H 0.0 **** 0.06
23130 H 72.99681703362603 64.65949597003525 11.894646463417189 H 0.0 **** 0.06
23131 C 114.89183700629042 14.193334420442113 13.498348603632792 C 0.0 **** -0.24
23132 H 114.40124960674947 14.119538839304255 12.527496759114708 H 0.0 **** 0.06
23133 H 114.14879471417356 14.088672390136196 14.28950858428685 H 0.0 **** 0.06
23134 H 115.38071725047186 15.163579069109346 13.584907714691276 H 0.0 **** 0.06
23135 H 115.63549395705405 13.401414370610269 13.59059318344196 H 0.0 **** 0.06
23136 C 130.56349064311397 47.409517349875884 135.48151504987874 C 0.0 **** -0.24
23137 H 129.84351544320424 46.619131871478146 135.69036787744392 H 0.0 **** 0.06
23138 H 131.39227749547814 47.00195681861992 134.90319264989444 H 0.0 **** 0.06
23139 H 130.94053141508272 47.815135516840854 136.42040280945866 H 0.0 **** 0.06
23140 H 130.07846098072804 48.202393534528525 134.91194709601103 H 0.0 **** 0.06
23141 C 5.241691203713582 34.21305691548099 17.746540018692542 C 0.0 **** -0.24
23142 H 5.091531318767569 33.137445531340745 17.646079630519353 H 0.0 **** 0.06
23143 H 4.292748332993046 34.69095873715361 17.989639449229514 H 0.0 **** 0.06
23144 H 5.622609436633201 34.61460908072672 16.80730988794346 H 0.0 **** 0.06
23145 H 5.960024852565375 34.40592685118736 18.542717745249774 H 0.0 **** 0.06
23146 C 11.906876048328954 117.21213442942741 76.42153268582416 C 0.0 **** -0.24
23147 H 11.871194709518718 117.90844892014667 77.25950824899587 H 0.0 **** 0.06
23148 H 12.1867518023043 117.74945649295924 75.51508486515252 H 0.0 **** 0.06
23149 H 10.925646402441075 116.75624175148064 76.28669076396977 H 0.0 **** 0.06
23150 H 12.642963870616825 116.43530103428213 76.62536986996821 H 0.0 **** 0.06
23151 C 107.60242053863078 8.638227419828638 33.002412827122356 C 0.0 **** -0.24
23152 H 106.62186181889001 8.3351073327363 33.3706341080443 H 0.0 **** 0.06
23153 H 108.37721238716028 8.210359454935883 33.63928855972645 H 0.0 **** 0.06
23154 H 107.6764681323765 9.724888920703506 33.01802457725323 H 0.0 **** 0.06
23155 H 107.73171405189373 8.27910360369225 31.981244206819355 H 0.0 **** 0.06
23156 C 68.8286316748587 129.62945542700356 16.68011953451912 C 0.0 **** -0.24
23157 H 69.62931123058213 129.48261020858772 15.955795190460151 H 0.0 **** 0.06
23158 H 69.13488260692786 129.22668205920948 17.646391813228547 H 0.0 **** 0.06
23159 H 67.93088992400865 129.11406528862878 16.33883107407013 H 0.0 **** 0.06
23160 H 68.62004491196905 130.69406259194082 16.780150294651662 H 0.0 **** 0.06
23161 C 127.62615688224327 87.8584176769262 67.44394654974509 C 0.0 **** -0.24
23162 H 127.75221993974833 87.80038590708307 66.36250098354176 H 0.0 **** 0.06
23163 H 128.55325781343393 88.2083003235588 67.89966919458178 H 0.0 **** 0.06
23164 H 127.37916210112253 86.87161916908047 67.83451832136458 H 0.0 **** 0.06
23165 H 126.81964764313946 88.55450278707053 67.67783648621779 H 0.0 **** 0.06
23166 C 22.58132024378321 25.168412515725095 52.81597810001489 C 0.0 **** -0.24
23167 H 22.09475587987427 25.976459804071453 53.36239897147803 H 0.0 **** 0.06
23168 H 22.78327353820427 25.490927277839603 51.79470627391461 H 0.0 **** 0.06
23169 H 21.92847366793734 24.295617472816673 52.7998154964377 H 0.0 **** 0.06
23170 H 23.519796886463837 24.912074767523904 53.308376971856944 H 0.0 **** 0.06
23171 C 130.29939566564644 101.41657173829583 97.11918139242988 C 0.0 **** -0.24
23172 H 130.17955544887633 101.88403613138874 98.09673315246164 H 0.0 **** 0.06
23173 H 130.88845620905954 102.06861075487927 96.47413498719757 H 0.0 **** 0.06
23174 H 129.31851258258973 101.25302034216506 96.67192820042914 H 0.0 **** 0.06
23175 H 130.81047205371118 100.46133719565591 97.23355312591403 H 0.0 **** 0.06
23176 C 9.291826868058081 42.660537276823845 40.94798503836756 C 0.0 **** -0.24
23177 H 8.726309869681813 41.72961337089174 40.95548122411459 H 0.0 **** 0.06
23178 H 9.511807373366139 42.959945513843934 41.97286276816837 H 0.0 **** 0.06
23179 H 8.704084547065179 43.43910345889668 40.45976909000443 H 0.0 **** 0.06
23180 H 10.224674807989857 42.514768947973664 40.40341422306139 H 0.0 **** 0.06
23181 C 3.521830841173653 70.62118872810879 39.54393693539589 C 0.0 **** -0.24
23182 H 2.549377015429741 70.17938230280916 39.32837101666291 H 0.0 **** 0.06
23183 H 3.471212996177087 71.17269545299803 40.48279913604176 H 0.0 **** 0.06
23184 H 3.7978377851599703 71.30082242297053 38.73731478209271 H 0.0 **** 0.06
23185 H 4.269260258182783 69.8322846923751 39.6259657989948 H 0.0 **** 0.06
23186 C 128.89556899245213 31.848529309109864 42.727478829441196 C 0.0 **** -0.24
23187 H 129.297070186746 31.02622975946376 43.317848376546976 H 0.0 **** 0.06
23188 H 129.7083355945441 32.347495811996 42.198548779257095 H 0.0 **** 0.06
23189 H 128.39989514802147 32.56097926739642 43.38696845289476 H 0.0 **** 0.06
23190 H 128.1760494159007 31.460061598184723 42.00570009128177 H 0.0 **** 0.06
23191 C 33.74691924100523 26.175443056513785 2.11056111082965 C 0.0 **** -0.24
23192 H 32.844435056180544 26.696391453988696 2.431706197533117 H 0.0 **** 0.06
23193 H 33.82970166162954 25.229194472902705 2.6456655610533346 H 0.0 **** 0.06
23194 H 34.61835731164152 26.793558641287973 2.3258234186237132 H 0.0 **** 0.06
23195 H 33.693339242803944 25.983723931971838 1.038417431072503 H 0.0 **** 0.06
23196 C 40.492151276618 9.743626954731184 45.23930169890964 C 0.0 **** -0.24
23197 H 40.431370007387635 10.376140002234052 46.124367175477616 H 0.0 **** 0.06
23198 H 39.5142386083579 9.695711309032362 44.75961534922763 H 0.0 **** 0.06
23199 H 40.80431728405253 8.740157752449562 45.52988566228501 H 0.0 **** 0.06
23200 H 41.218679206674 10.16249875520893 44.543338608648355 H 0.0 **** 0.06
23201 C 29.251065737608343 64.58390049851783 92.60994324532982 C 0.0 **** -0.24
23202 H 29.59096372075544 65.2611850359559 91.82658823742754 H 0.0 **** 0.06
23203 H 30.09121005711583 63.98445239120842 92.96160726886386 H 0.0 **** 0.06
23204 H 28.477565979353557 63.92736083055878 92.21232682243236 H 0.0 **** 0.06
23205 H 28.84452319320843 65.16260373634803 93.4392506525953 H 0.0 **** 0.06
23206 C 62.083400099976416 8.05229973335399 51.10678871043302 C 0.0 **** -0.24
23207 H 61.13774265247855 8.14534272631509 50.57258363327597 H 0.0 **** 0.06
23208 H 61.9317567687082 8.290682018529477 52.159573233259664 H 0.0 **** 0.06
23209 H 62.811430182202685 8.741641102776047 50.67893739785774 H 0.0 **** 0.06
23210 H 62.45337740945578 7.030956130299625 51.01565086175921 H 0.0 **** 0.06
23211 C 29.718988701376247 27.050726464829175 20.042655252471206 C 0.0 **** -0.24
23212 H 29.36446560980852 27.781847385537866 19.315293105206138 H 0.0 **** 0.06
23213 H 29.554335370416823 27.43352412444053 21.05019747289259 H 0.0 **** 0.06
23214 H 30.783378140061075 26.874111859496473 19.890394198008153 H 0.0 **** 0.06
23215 H 29.172810018100733 26.1164297024101 19.9145793164339 H 0.0 **** 0.06
23216 C 125.6164218770001 92.4725060981784 56.75230800109085 C 0.0 **** -0.24
23217 H 126.52238399836153 92.65757060028986 56.17603655433942 H 0.0 **** 0.06
23218 H 124.76865564192775 92.36938846591391 56.07454384272418 H 0.0 **** 0.06
23219 H 125.44087664651295 93.30881473391287 57.43027325196289 H 0.0 **** 0.06
23220 H 125.73323039499411 91.55521126450404 57.329714302769446 H 0.0 **** 0.06
23221 C 37.51157972434258 111.97550273588263 76.90450679333816 C 0.0 **** -0.24
23222 H 37.64425885628947 111.15673059965485 77.61252201434101 H 0.0 **** 0.06
23223 H 38.31876133713248 111.95614595010846 76.17236253590112 H 0.0 **** 0.06
23224 H 37.529665800542666 112.9241203234435 77.44063327707053 H 0.0 **** 0.06
23225 H 36.55496041645655 111.86354670004181 76.39476432955985 H 0.0 **** 0.06
23226 C 108.08255548421403 94.7807716922523 55.67799645936145 C 0.0 **** -0.24
23227 H 108.8199572045421 94.94811611619949 54.893212038258014 H 0.0 **** 0.06
23228 H 107.15137922022404 95.28291997467645 55.413540452458676 H 0.0 **** 0.06
23229 H 108.45707819237248 95.18208232587554 56.61913275646265 H 0.0 **** 0.06
23230 H 107.90181723852419 93.71178752450118 55.78446022687842 H 0.0 **** 0.06
23231 C 33.849379783948336 34.68795333737597 79.21485223245173 C 0.0 **** -0.24
23232 H 33.27677527643323 33.9532600711874 79.78019363854489 H 0.0 **** 0.06
23233 H 33.419879269352975 34.79413048231498 78.21815426801987 H 0.0 **** 0.06
23234 H 34.88480944406365 34.35618525970159 79.13130899430504 H 0.0 **** 0.06
23235 H 33.816055145943665 35.64823753629989 79.72975202893724 H 0.0 **** 0.06
23236 C 109.35790239099856 37.49363022375914 75.14085017046077 C 0.0 **** -0.24
23237 H 109.23996298820289 36.669294778369704 74.43686332693194 H 0.0 **** 0.06
23238 H 110.15329141426702 38.15439535862339 74.7956157345266 H 0.0 **** 0.06
23239 H 109.61372861528281 37.09717085246308 76.12341516567018 H 0.0 **** 0.06
23240 H 108.42424846926728 38.05157830575354 75.20562912396704 H 0.0 **** 0.06
23241 C 88.87298451667593 2.369117415518218 45.45979932763231 C 0.0 **** -0.24
23242 H 89.51887022456835 1.5207291370405471 45.23512843288 H 0.0 **** 0.06
23243 H 88.04408388861604 2.392244972947765 44.75066038683886 H 0.0 **** 0.06
23244 H 89.4455717923013 3.292987596620975 45.380579746857194 H 0.0 **** 0.06
23245 H 88.48137274350765 2.2691598012467864 46.47267533701495 H 0.0 **** 0.06
23246 C 41.176046694951395 123.66985794340292 8.682812517081832 C 0.0 **** -0.24
23247 H 41.77533328856558 124.58082483877308 8.703597558749049 H 0.0 **** 0.06
23248 H 40.86615289610526 123.41656186799241 9.696580727752988 H 0.0 **** 0.06
23249 H 41.76989084526966 122.85492969449331 8.269270353592535 H 0.0 **** 0.06
23250 H 40.29441044316681 123.82894439289362 8.061496891050172 H 0.0 **** 0.06
23251 C 7.507299333330053 33.97733683893074 9.639321597400283 C 0.0 **** -0.24
23252 H 6.6481802594490205 33.76690861872456 10.276816282549362 H 0.0 **** 0.06
23253 H 8.161417500979582 34.693865437082735 10.135844748417469 H 0.0 **** 0.06
23254 H 7.16332231845638 34.39272267327209 8.692371514499825 H 0.0 **** 0.06
23255 H 8.055799001190508 33.053035039302955 9.453172625326971 H 0.0 **** 0.06
23256 C 119.90396235327819 51.48435044469255 49.36459044138155 C 0.0 **** -0.24
23257 H 120.485397788954 51.290583243806054 50.26641315382439 H 0.0 **** 0.06
23258 H 118.97880389239953 51.99601892941263 49.6324547903114 H 0.0 **** 0.06
23259 H 119.66830256777126 50.539629092037956 48.874913935966134 H 0.0 **** 0.06
23260 H 120.48305060103985 52.1110639019513 48.68679395371048 H 0.0 **** 0.06
23261 C 36.316160153413776 39.48080191362789 56.74108043663264 C 0.0 **** -0.24
23262 H 35.82690110431052 39.17335947674992 57.66606360242015 H 0.0 **** 0.06
23263 H 35.58803393223413 39.48897310952614 55.93019050306829 H 0.0 **** 0.06
23264 H 37.116496155754426 38.7805393127987 56.50434518021696 H 0.0 **** 0.06
23265 H 36.732810036701565 40.48027256958854 56.86592171778588 H 0.0 **** 0.06
23266 C 36.88005348054605 53.80530096322508 90.93842035949726 C 0.0 **** -0.24
23267 H 36.498998192527324 53.61426733424702 91.94206278750235 H 0.0 **** 0.06
23268 H 37.70335040424982 54.51868490567449 90.9918493481178 H 0.0 **** 0.06
23269 H 36.081632018049106 54.2150622148736 90.31906344496286 H 0.0 **** 0.06
23270 H 37.23577276395929 52.8716803086636 90.50229040168308 H 0.0 **** 0.06
23271 C 40.3700904713603 119.12046711880684 56.28287579926399 C 0.0 **** -0.24
23272 H 41.12222326164172 118.34475726898657 56.140080339124324 H 0.0 **** 0.06
23273 H 40.780097742412465 120.08446010213336 55.97935365336102 H 0.0 **** 0.06
23274 H 40.08609007215898 119.16173874009309 57.33492976089485 H 0.0 **** 0.06
23275 H 39.49237609361518 118.89143441687591 55.679022733187594 H 0.0 **** 0.06
23276 C 127.41646646500715 9.496746286117514 14.826541719861012 C 0.0 **** -0.24
23277 H 126.4863019035974 9.84943344502554 15.272681544548902 H 0.0 **** 0.06
23278 H 128.01415331242686 10.35155097767958 14.50957413975658 H 0.0 **** 0.06
23279 H 127.18962750530346 8.870205974061946 13.963567551762424 H 0.0 **** 0.06
23280 H 127.9734537761305 8.91556956484419 15.561067273651929 H 0.0 **** 0.06
23281 C 28.131920014406518 60.9523005868777 69.94505152333693 C 0.0 **** -0.24
23282 H 28.269285506033384 61.73921123793991 69.20372609523685 H 0.0 **** 0.06
23283 H 27.155267105457057 61.06565703216339 70.41681367448263 H 0.0 **** 0.06
23284 H 28.91246001906586 61.02610132374906 70.70202298603027 H 0.0 **** 0.06
23285 H 28.189385341722556 59.97881361668425 69.45750568586095 H 0.0 **** 0.06
23286 C 30.60061670355725 122.013137204474 18.029827462484924 C 0.0 **** -0.24
23287 H 30.9858145084101 122.79541710825873 17.375829860971812 H 0.0 **** 0.06
23288 H 31.431146966385086 121.42655665149479 18.422783957664755 H 0.0 **** 0.06
23289 H 29.931633603745183 121.36430813401357 17.46497306793978 H 0.0 **** 0.06
23290 H 30.054636927821775 122.4683715863857 18.85671551354507 H 0.0 **** 0.06
23291 C 7.81167448484814 67.84292880486065 128.87478252207097 C 0.0 **** -0.24
23292 H 8.622551037099356 67.14133881258071 128.68048961528942 H 0.0 **** 0.06
23293 H 7.145842112056755 67.87495603467855 128.01163442985614 H 0.0 **** 0.06
23294 H 8.2245000177345 68.83511078649572 129.05277123994327 H 0.0 **** 0.06
23295 H 7.253790664536723 67.51847026184286 129.75296322130907 H 0.0 **** 0.06
23296 C 133.84539674057072 8.398832035325313 93.17027963149752 C 0.0 **** -0.24
23297 H 133.48067251216844 9.426105149140056 93.17078806642218 H 0.0 **** 0.06
23298 H 134.56004101270923 8.2685111102127 92.3579046800133 H 0.0 **** 0.06
23299 H 133.00730902241946 7.716103062678826 93.03040044355609 H 0.0 **** 0.06
23300 H 134.33249122735842 8.186714421315884 94.12138114160412 H 0.0 **** 0.06
23301 C 23.995430016632206 1.1578421243441994 103.41323744148661 C 0.0 **** -0.24
23302 H 23.967359583919574 1.7459718373732827 102.49563427013265 H 0.0 **** 0.06
23303 H 22.989577677694307 1.083039878105943 103.82664010748226 H 0.0 **** 0.06
23304 H 24.651278219600364 1.6434973391866272 104.13551660459768 H 0.0 **** 0.06
23305 H 24.373783611863296 0.16027562225338698 103.19217263412281 H 0.0 **** 0.06
23306 C 78.90566013464411 129.82416181773965 111.52703141771167 C 0.0 **** -0.24
23307 H 78.28457853672558 129.00758675652057 111.15810472435268 H 0.0 **** 0.06
23308 H 78.27478598478928 130.6815686945052 111.76293891854036 H 0.0 **** 0.06
23309 H 79.6296566088688 130.103593241669 110.76203585091571 H 0.0 **** 0.06
23310 H 79.43269306124239 129.50188629981173 112.4253508875419 H 0.0 **** 0.06
23311 C 59.55102421016815 2.1641147198902217 58.08231919356625 C 0.0 **** -0.24
23312 H 58.988363028263294 2.1941940608847688 57.149836679455944 H 0.0 **** 0.06
23313 H 60.014992993924366 1.1838473841520454 58.19481814708793 H 0.0 **** 0.06
23314 H 58.877228808967445 2.345689134465033 58.91903031611615 H 0.0 **** 0.06
23315 H 60.324472242576945 2.9328585848336104 58.06534459983487 H 0.0 **** 0.06
23316 C 24.175309270879012 130.46581111983562 0.3467737286734405 C 0.0 **** -0.24
23317 H 24.79389663908931 130.18123498592658 -0.5045923325661761 H 0.0 **** 0.06
23318 H 23.643881705994232 131.39046262498883 0.1169727353114638 H 0.0 **** 0.06
23319 H 24.808629263047138 130.61873055841377 1.2212035664466043 H 0.0 **** 0.06
23320 H 23.455379523593848 129.67494396802573 0.5539241646727646 H 0.0 **** 0.06
23321 C 66.91410050808184 130.48802532456386 8.101521309917981 C 0.0 **** -0.24
23322 H 65.91258976124436 130.5123259605548 8.531496638294495 H 0.0 **** 0.06
23323 H 67.6423428568911 130.7698161126419 8.861982414970765 H 0.0 **** 0.06
23324 H 66.96778297834845 131.18892053897142 7.268038744814248 H 0.0 **** 0.06
23325 H 67.13067366392218 129.4819594366165 7.744842918054857 H 0.0 **** 0.06
23326 C 19.556038273105486 25.66159286751099 46.100106021077295 C 0.0 **** -0.24
23327 H 19.749835965922074 24.610282642435436 45.88896556121853 H 0.0 **** 0.06
23328 H 19.25006982167247 25.772062516955515 47.1399467676157 H 0.0 **** 0.06
23329 H 18.762249783501943 26.022163099008537 45.44685725873319 H 0.0 **** 0.06
23330 H 20.462885652661782 26.24014680939331 45.92352958884595 H 0.0 **** 0.06
23331 C 70.0174038157412 34.09826026217189 97.40579371632964 C 0.0 **** -0.24
23332 H 70.04378166662258 34.6629496924101 96.47357210019108 H 0.0 **** 0.06
23333 H 70.03023424636653 34.788092503899804 98.24930536078915 H 0.0 **** 0.06
23334 H 70.8863867198962 33.443310893519566 97.45753380472095 H 0.0 **** 0.06
23335 H 69.10662139668615 33.49921225514473 97.4401157190019 H 0.0 **** 0.06
23336 C 117.41133340278225 17.46527486431522 77.09143067642324 C 0.0 **** -0.24
23337 H 116.43111851968195 17.84896201083008 76.81105244788552 H 0.0 **** 0.06
23338 H 118.1722037558697 18.212638825925936 76.86826383656394 H 0.0 **** 0.06
23339 H 117.61843624341356 16.55475612797197 76.52791921255252 H 0.0 **** 0.06
23340 H 117.42198543667678 17.241515588369438 78.15873355693316 H 0.0 **** 0.06
23341 C 75.05247856484758 111.20457467363562 45.298164815992436 C 0.0 **** -0.24
23342 H 74.54123863458724 111.70194096826913 44.474205142521555 H 0.0 **** 0.06
23343 H 74.79431344376339 111.69852081592006 46.23553565826717 H 0.0 **** 0.06
23344 H 76.12993677131922 111.2599713825933 45.142938920101074 H 0.0 **** 0.06
23345 H 74.7442424622786 110.16065626945482 45.33889385981803 H 0.0 **** 0.06
23346 C 21.648152026703997 98.80487558566165 80.57924200069829 C 0.0 **** -0.24
23347 H 22.58028675104802 99.32128080353601 80.34912336371715 H 0.0 **** 0.06
23348 H 21.237476173264525 99.19444292300307 81.51081685100385 H 0.0 **** 0.06
23349 H 21.840864902474365 97.73783570779636 80.68393031003919 H 0.0 **** 0.06
23350 H 20.934120443559237 98.96781249518955 79.77075538149214 H 0.0 **** 0.06
23351 C 32.66137142310686 111.3567864600557 21.076231580812987 C 0.0 **** -0.24
23352 H 32.97177010568315 112.06690439491274 21.843427963365002 H 0.0 **** 0.06
23353 H 31.824950930999975 111.77112599239663 20.515005700825938 H 0.0 **** 0.06
23354 H 32.355093681193836 110.42296535911339 21.549360771587857 H 0.0 **** 0.06
23355 H 33.49505887482243 111.16486007931059 20.40035837849318 H 0.0 **** 0.06
23356 C 104.3233360859841 56.2579421328646 85.40909769497159 C 0.0 **** -0.24
23357 H 104.97073825118582 55.38292993612845 85.36406333333372 H 0.0 **** 0.06
23358 H 103.28080303269053 55.93857662281127 85.42401786564898 H 0.0 **** 0.06
23359 H 104.49931749880483 56.885005041623856 84.53426298028205 H 0.0 **** 0.06
23360 H 104.54268968546523 56.82587010580556 86.31328345176186 H 0.0 **** 0.06
23361 C 123.88644376376163 10.178885822924244 13.735958844177503 C 0.0 **** -0.24
23362 H 123.88220193264937 9.803565919513595 14.759829485134652 H 0.0 **** 0.06
23363 H 122.85951705605095 10.297339031789601 13.38888323131938 H 0.0 **** 0.06
23364 H 124.40917799420964 9.471737001903207 13.091916507812048 H 0.0 **** 0.06
23365 H 124.39388185321911 11.142544316057101 13.705415306338473 H 0.0 **** 0.06
23366 C 87.80649871673103 71.8439254407147 54.76784229799003 C 0.0 **** -0.24
23367 H 88.78722136822094 71.85714203164407 54.29071596698488 H 0.0 **** 0.06
23368 H 87.85298233331159 71.24241163267645 55.67574839549489 H 0.0 **** 0.06
23369 H 87.075099464088 71.41453676821901 54.08340198066368 H 0.0 **** 0.06
23370 H 87.5125863264249 72.86280767319998 55.0205131834994 H 0.0 **** 0.06
23371 C 40.733442418338484 28.337402944480978 102.7149074139482 C 0.0 **** -0.24
23372 H 40.53332384303411 28.674043315964816 101.69766610513966 H 0.0 **** 0.06
23373 H 39.820476367058575 27.928037620879536 103.14773774794708 H 0.0 **** 0.06
23374 H 41.07478699380664 29.180205782771253 103.31564138203788 H 0.0 **** 0.06
23375 H 41.50447453187553 27.567654814782557 102.69740536267756 H 0.0 **** 0.06
23376 C 32.438994886174015 99.55671811180962 73.54604250716824 C 0.0 **** -0.24
23377 H 31.55370461895049 100.18909730188041 73.6146848864604 H 0.0 **** 0.06
23378 H 32.747755837061135 99.25369598321512 74.546074649523 H 0.0 **** 0.06
23379 H 33.245891380218836 100.1138323410462 73.06980427615309 H 0.0 **** 0.06
23380 H 32.2089445961671 98.67232829209965 72.95146905071073 H 0.0 **** 0.06
23381 C 41.20127789318605 71.96860061588258 89.80822382376812 C 0.0 **** -0.24
23382 H 40.29585506171921 72.50252967580403 89.52111708414458 H 0.0 **** 0.06
23383 H 40.93959409148163 71.13714547858469 90.46413928581818 H 0.0 **** 0.06
23384 H 41.871714165951936 72.64854007487422 90.33399145705727 H 0.0 **** 0.06
23385 H 41.696303739896074 71.58644504410425 88.91614336987587 H 0.0 **** 0.06
23386 C 64.3477777075858 111.96264381052563 42.252759516726684 C 0.0 **** -0.24
23387 H 64.84378818051312 111.13005451005958 42.752023722922715 H 0.0 **** 0.06
23388 H 63.33316627481679 112.06378005526119 42.63756485134337 H 0.0 **** 0.06
23389 H 64.31375912518234 111.77507440207819 41.17971827851241 H 0.0 **** 0.06
23390 H 64.90248672404425 112.88216901087583 42.44425744920565 H 0.0 **** 0.06
23391 C 32.85834774648981 65.23296630973832 76.02947614354377 C 0.0 **** -0.24
23392 H 33.08627858926772 65.9380177843621 76.82747671167131 H 0.0 **** 0.06
23393 H 32.22222891422197 65.71676775321703 75.28781983022819 H 0.0 **** 0.06
23394 H 32.339215088919076 64.36888684869176 76.44477971223739 H 0.0 **** 0.06
23395 H 33.78556773160861 64.90703124229296 75.55654743459606 H 0.0 **** 0.06
23396 C 133.63155018692797 29.453499379958593 120.10778015905548 C 0.0 **** -0.24
23397 H 134.2124471982851 29.015727484161125 120.91916198036282 H 0.0 **** 0.06
23398 H 132.6613956324515 29.773748205780535 120.48838088901022 H 0.0 **** 0.06
23399 H 133.4875934625271 28.71221985448294 119.32270875033491 H 0.0 **** 0.06
23400 H 134.16477869726464 30.31347108035237 119.70277511790376 H 0.0 **** 0.06
23401 C 137.01103220928735 6.434608064022399 36.1043769957721 C 0.0 **** -0.24
23402 H 136.4396301688497 5.567175148510074 35.7722189593095 H 0.0 **** 0.06
23403 H 136.78548874582683 6.637482584193975 37.15195143178971 H 0.0 **** 0.06
23404 H 136.7421215964951 7.300281931274981 35.499587883263644 H 0.0 **** 0.06
23405 H 138.07625716049972 6.230393947144222 35.993771911829526 H 0.0 **** 0.06
23406 C 71.7837530863324 4.011456525461114 136.21738416269991 C 0.0 **** -0.24
23407 H 71.5807955565297 4.325284987079243 135.19340710994655 H 0.0 **** 0.06
23408 H 71.1693332013121 3.144543439535113 136.46013910604705 H 0.0 **** 0.06
23409 H 71.54887760557855 4.827851799155582 136.89988786128905 H 0.0 **** 0.06
23410 H 72.83756908031154 3.7491635578885223 136.31451470539054 H 0.0 **** 0.06
23411 C 4.151906691066358 78.90221200745134 20.584216507597375 C 0.0 **** -0.24
23412 H 3.092107043762155 79.10349478980226 20.738809480135984 H 0.0 **** 0.06
23413 H 4.6262745223557715 78.69949318787855 21.544462989953445 H 0.0 **** 0.06
23414 H 4.623484989839568 79.76892253447267 20.121434900864358 H 0.0 **** 0.06
23415 H 4.265257251132766 78.03607460557862 19.93220828986574 H 0.0 **** 0.06
23416 C 60.47110906425267 17.219451707336354 114.06174214911985 C 0.0 **** -0.24
23417 H 60.59915186078116 16.283715560032128 114.6054009959065 H 0.0 **** 0.06
23418 H 60.53282346967167 18.05636967790398 114.75716338326708 H 0.0 **** 0.06
23419 H 59.4973326080693 17.224523901700444 113.57217219417768 H 0.0 **** 0.06
23420 H 61.255411584466486 17.31325088939058 113.3100145556736 H 0.0 **** 0.06
23421 C 117.62137887606076 16.17546835749681 115.82088691614442 C 0.0 **** -0.24
23422 H 116.6520728365752 15.952307910396087 115.37455822570422 H 0.0 **** 0.06
23423 H 117.4739536425468 16.66805234202087 116.78212304319445 H 0.0 **** 0.06
23424 H 118.18285932755197 16.83363130224359 115.15660732370873 H 0.0 **** 0.06
23425 H 118.17542841616358 15.248583742599408 115.96760111741162 H 0.0 **** 0.06
23426 C 89.31190885826395 66.66596806946413 115.41439766696328 C 0.0 **** -0.24
23427 H 90.33364491504622 66.79447616791535 115.05453485025899 H 0.0 **** 0.06
23428 H 89.23494837659675 65.72328112411692 115.95664345330127 H 0.0 **** 0.06
23429 H 88.62683198189869 66.6549608398589 114.56667213612155 H 0.0 **** 0.06
23430 H 89.05580724402645 67.49041214104149 116.07902534317603 H 0.0 **** 0.06
23431 C 17.25459614942025 23.131881942314465 127.04335599764467 C 0.0 **** -0.24
23432 H 17.729884441774743 22.495496483352383 126.29691065675583 H 0.0 **** 0.06
23433 H 16.35763629079497 22.640023159784462 127.42211462282903 H 0.0 **** 0.06
23434 H 16.9827453981718 24.08408028969967 126.58872482874146 H 0.0 **** 0.06
23435 H 17.947940052746162 23.30652509297616 127.8656977965823 H 0.0 **** 0.06
23436 C 92.21415157248043 9.49522356209053 96.51088115070296 C 0.0 **** -0.24
23437 H 93.17778916577569 10.002765442147961 96.48888513508648 H 0.0 **** 0.06
23438 H 91.47662802208308 10.09418542905405 95.97533486751624 H 0.0 **** 0.06
23439 H 91.89497829992672 9.366663518064286 97.54594872145721 H 0.0 **** 0.06
23440 H 92.30579438602001 8.519536555212198 96.0350592728604 H 0.0 **** 0.06
23441 C 83.59642096685602 127.64246162269671 62.54377072374798 C 0.0 **** -0.24
23442 H 83.24789787604615 127.50425667479124 61.52011300496275 H 0.0 **** 0.06
23443 H 82.78660684473297 127.41293156387724 63.23660917559404 H 0.0 **** 0.06
23444 H 83.91219632486573 128.67551484177136 62.682576136418376 H 0.0 **** 0.06
23445 H 84.43746954243949 126.97532923658855 62.733456645666806 H 0.0 **** 0.06
23446 C 86.72915652087917 7.660095387316517 55.516775850203544 C 0.0 **** -0.24
23447 H 87.25698981679078 8.05846389020445 56.38376988152231 H 0.0 **** 0.06
23448 H 87.06820116960637 8.172866865735955 54.61695021467392 H 0.0 **** 0.06
23449 H 85.65781001047996 7.8145271550929465 55.64226494186403 H 0.0 **** 0.06
23450 H 86.93486765176554 6.593045674256075 55.42681505780547 H 0.0 **** 0.06
23451 C 103.43823638983507 60.922538476880845 107.8621028661882 C 0.0 **** -0.24
23452 H 104.2556896738401 60.86563624565781 107.1432584246324 H 0.0 **** 0.06
23453 H 102.69612913673753 61.64023367515841 107.51286444614044 H 0.0 **** 0.06
23454 H 103.82681923106554 61.2425642089176 108.82903873839389 H 0.0 **** 0.06
23455 H 102.97504847146791 59.94104828448485 107.96424994405446 H 0.0 **** 0.06
23456 C 114.26304114054153 113.72464948920324 104.13941878458434 C 0.0 **** -0.24
23457 H 113.52982892145329 114.42657212027112 104.53711281271717 H 0.0 **** 0.06
23458 H 115.18822442510515 114.2551310674506 103.91430937900782 H 0.0 **** 0.06
23459 H 113.87345497652984 113.27120930451653 103.22748472798304 H 0.0 **** 0.06
23460 H 114.45866158601336 112.94700526232839 104.8764703929503 H 0.0 **** 0.06
23461 C 24.457393084596873 62.711523825268216 52.07623739360196 C 0.0 **** -0.24
23462 H 25.2085386228259 62.78486144850096 52.86404329238189 H 0.0 **** 0.06
23463 H 23.475628888159832 62.94534802112065 52.48881029617672 H 0.0 **** 0.06
23464 H 24.451670870989915 61.69870348226358 51.674751128370815 H 0.0 **** 0.06
23465 H 24.69523417141167 63.416995116706005 51.281180882353624 H 0.0 **** 0.06
23466 C 40.24703304019265 44.11992600821368 41.615109596871775 C 0.0 **** -0.24
23467 H 39.898123106797414 45.08829783967014 41.25611944655671 H 0.0 **** 0.06
23468 H 41.28736816516333 43.97801239211591 41.32233251852347 H 0.0 **** 0.06
23469 H 39.63540185190806 43.32965619965421 41.17947787791465 H 0.0 **** 0.06
23470 H 40.16644495262153 44.08525678727097 42.70147816112893 H 0.0 **** 0.06
23471 C 120.51189764622919 93.7624173715322 33.89110603740596 C 0.0 **** -0.24
23472 H 119.9133758630091 93.5734625183194 34.78234551514794 H 0.0 **** 0.06
23473 H 121.33166753657801 93.04518371992263 33.84500506679984 H 0.0 **** 0.06
23474 H 120.91635252676966 94.77378752673499 33.932635835453425 H 0.0 **** 0.06
23475 H 119.88619465856006 93.65723572115152 33.00443773222264 H 0.0 **** 0.06
23476 C 48.65293947735199 118.66787973493314 59.0562228847125 C 0.0 **** -0.24
23477 H 48.29605890838687 118.15106937273023 59.94699354140789 H 0.0 **** 0.06
23478 H 49.09606736562458 119.62189260392063 59.3432441705379 H 0.0 **** 0.06
23479 H 47.81749706548143 118.84327481020722 58.37906148037706 H 0.0 **** 0.06
23480 H 49.40329276965312 118.05513113203656 58.556389754055374 H 0.0 **** 0.06
23481 C 121.73422819220006 15.76632283619685 17.216278278472885 C 0.0 **** -0.24
23482 H 122.79544040196076 15.876655466530693 16.990866505993836 H 0.0 **** 0.06
23483 H 121.1655658341578 16.513314838339028 16.66100338496571 H 0.0 **** 0.06
23484 H 121.57279528489975 15.90716045262883 18.28456672233932 H 0.0 **** 0.06
23485 H 121.40389014492482 14.769045723002506 16.925917828606487 H 0.0 **** 0.06
23486 C 88.88517229982699 26.29758224507129 116.05073624752293 C 0.0 **** -0.24
23487 H 87.86095493136679 26.63312060945111 116.21173880479475 H 0.0 **** 0.06
23488 H 88.87567939522575 25.338699686881917 115.5309976025774 H 0.0 **** 0.06
23489 H 89.38646848458626 26.184599724428892 117.01210514438736 H 0.0 **** 0.06
23490 H 89.41771106996828 27.032516114474454 115.44789241747716 H 0.0 **** 0.06
23491 C 1.5263168227822064 88.1031542003764 99.11532573158426 C 0.0 **** -0.24
23492 H 1.1772971980187208 87.97756814689222 98.09034060476863 H 0.0 **** 0.06
23493 H 2.227746643746741 87.30554598375323 99.3602122424129 H 0.0 **** 0.06
23494 H 0.6756029121271467 88.06175921593507 99.79590517818438 H 0.0 **** 0.06
23495 H 2.0234124990045643 89.06824849227212 99.21431041654535 H 0.0 **** 0.06
23496 C 24.403596056903325 36.53461400376196 27.387688181365903 C 0.0 **** -0.24
23497 H 23.86326316652088 37.209262067434025 26.7238882093801 H 0.0 **** 0.06
23498 H 24.02373076603834 35.52038117838393 27.26196933011945 H 0.0 **** 0.06
23499 H 24.260275568082676 36.85058279404191 28.420937433616544 H 0.0 **** 0.06
23500 H 25.465421967108455 36.55835270789677 27.143611862526527 H 0.0 **** 0.06
23501 C 0.8357458903284112 101.0344249552581 84.2543107954671 C 0.0 **** -0.24
23502 H 1.7306759556329894 101.4075519792072 83.75656542534558 H 0.0 **** 0.06
23503 H 1.1120552509811432 100.57873269090466 85.2054694505834 H 0.0 **** 0.06
23504 H 0.3511456183317989 100.29111423462071 83.62158906241895 H 0.0 **** 0.06
23505 H 0.14849076284556872 101.86104241787486 84.43388532317185 H 0.0 **** 0.06
23506 C 26.464561137618915 133.65484720908694 136.12200114158455 C 0.0 **** -0.24
23507 H 26.368345323147878 132.60977943867022 135.82840122331834 H 0.0 **** 0.06
23508 H 27.262857690714185 133.75336500155447 136.85835293961594 H 0.0 **** 0.06
23509 H 25.524765440663828 133.9984858718807 136.55591432176558 H 0.0 **** 0.06
23510 H 26.70157009483333 134.25834251909623 135.24573677950505 H 0.0 **** 0.06
23511 C 13.037313197802082 47.81641397329611 8.25193094207799 C 0.0 **** -0.24
23512 H 13.493229498706725 48.00244520514843 9.224468230909508 H 0.0 **** 0.06
23513 H 12.653628731113095 46.796405356428465 8.218995523059448 H 0.0 **** 0.06
23514 H 13.78387865919079 47.94913028122642 7.4690960670940285 H 0.0 **** 0.06
23515 H 12.217706262979721 48.517879480480076 8.09571416449512 H 0.0 **** 0.06
23516 C 69.79903002941684 39.48749388776429 88.91077818561484 C 0.0 **** -0.24
23517 H 70.36035117835246 40.36376838234492 89.23679765110136 H 0.0 **** 0.06
23518 H 68.82870157262407 39.80063838231085 88.52506807986327 H 0.0 **** 0.06
23519 H 69.6548564978201 38.8135258243058 89.75574099236704 H 0.0 **** 0.06
23520 H 70.35367074253332 38.97254894624706 88.1262888907441 H 0.0 **** 0.06
23521 C 86.42184522370563 105.40812500233164 106.53757186577751 C 0.0 **** -0.24
23522 H 85.55620270794536 106.06377148907711 106.44826487467952 H 0.0 **** 0.06
23523 H 86.310339294838 104.77720402544492 107.41959126854108 H 0.0 **** 0.06
23524 H 87.32471529316126 106.01063911567275 106.63274751144866 H 0.0 **** 0.06
23525 H 86.4952165675571 104.78102692423226 105.64860800554955 H 0.0 **** 0.06
23526 C 67.18083438976693 110.03358415015268 82.25098803823344 C 0.0 **** -0.24
23527 H 66.83259360581033 109.37124979507968 83.04414102741511 H 0.0 **** 0.06
23528 H 67.65757124719987 110.90892294603074 82.692820643752 H 0.0 **** 0.06
23529 H 66.33288949113513 110.34919308748167 81.64285604166952 H 0.0 **** 0.06
23530 H 67.89969876944305 109.50453787711615 81.62570643390268 H 0.0 **** 0.06
23531 C 38.29570097769826 14.719661176343635 69.89830760740563 C 0.0 **** -0.24
23532 H 39.15301596379828 14.162428137171105 70.27580782191285 H 0.0 **** 0.06
23533 H 38.07737911401085 14.402283399254998 68.87900199147037 H 0.0 **** 0.06
23534 H 38.52335220199191 15.78538599813399 69.90755782746282 H 0.0 **** 0.06
23535 H 37.43123357553182 14.52726707497402 70.53276613597978 H 0.0 **** 0.06
23536 C 62.6417764183941 21.243721649289 47.0745175271054 C 0.0 **** -0.24
23537 H 63.075873629035186 22.17611278440893 47.43810456228533 H 0.0 **** 0.06
23538 H 62.30206961760615 20.648291462565666 47.92173782098678 H 0.0 **** 0.06
23539 H 63.394255959642635 20.687941934270725 46.516215233809476 H 0.0 **** 0.06
23540 H 61.79648148963673 21.466587518909137 46.42347578734922 H 0.0 **** 0.06
23541 C 133.88871008408728 53.54778250272345 38.68407509015806 C 0.0 **** -0.24
23542 H 132.83605332938112 53.634541477318834 38.414685590122474 H 0.0 **** 0.06
23543 H 134.0644910168503 52.57974230295231 39.15554555403553 H 0.0 **** 0.06
23544 H 134.1525056684896 54.344032030774144 39.380479184569346 H 0.0 **** 0.06
23545 H 134.50194768583555 53.63193274328992 37.78668472982422 H 0.0 **** 0.06
23546 C 40.68395319059991 47.28712543999923 23.46956961926628 C 0.0 **** -0.24
23547 H 41.22007615438977 48.23416779913856 23.41854075695622 H 0.0 **** 0.06
23548 H 39.78764271927338 47.409377624042236 24.078925078114565 H 0.0 **** 0.06
23549 H 41.3277540602937 46.529723177618905 23.91805525940501 H 0.0 **** 0.06
23550 H 40.40069747314047 46.975307059892344 22.464123662813392 H 0.0 **** 0.06
23551 C 72.86732773194342 83.95288785777245 23.518741091762507 C 0.0 **** -0.24
23552 H 71.78591013748121 83.84553110960695 23.60309497122971 H 0.0 **** 0.06
23553 H 73.3462735043696 83.00422440866949 23.759673938645648 H 0.0 **** 0.06
23554 H 73.21060640497092 84.72150301079361 24.211564001823348 H 0.0 **** 0.06
23555 H 73.12465174893532 84.24248886880252 22.49933355748989 H 0.0 **** 0.06
23556 C 119.96483932478674 71.16365107490552 98.48191073543934 C 0.0 **** -0.24
23557 H 119.3101792833754 72.03450423755069 98.4369763165689 H 0.0 **** 0.06
23558 H 120.89533545522706 71.43508109303986 98.98227044570848 H 0.0 **** 0.06
23559 H 120.18097132663979 70.81978290975287 97.47080754244922 H 0.0 **** 0.06
23560 H 119.47078812325398 70.36713581165195 99.03983634551777 H 0.0 **** 0.06
23561 C 122.8293127724931 64.41686741673729 133.1102379420596 C 0.0 **** -0.24
23562 H 123.15346327790424 65.08272908029636 133.9101752945676 H 0.0 **** 0.06
23563 H 123.50228135743126 64.51911643159002 132.2581273000576 H 0.0 **** 0.06
23564 H 121.81606963823194 64.6812038722424 132.80677348733636 H 0.0 **** 0.06
23565 H 122.84593477618219 63.38695275441489 133.46471853699745 H 0.0 **** 0.06
23566 C 79.27510216045513 39.50793867570686 31.05147680882277 C 0.0 **** -0.24
23567 H 79.56485360653511 40.320958273759516 31.716847588702876 H 0.0 **** 0.06
23568 H 80.13703869465326 39.20002330389972 30.458071653073887 H 0.0 **** 0.06
23569 H 78.479555919201 39.84637473441393 30.388296415475565 H 0.0 **** 0.06
23570 H 78.92067639462229 38.66338067423389 31.642550601171422 H 0.0 **** 0.06
23571 C 118.8453030765159 84.22729137804397 87.51875582577509 C 0.0 **** -0.24
23572 H 119.37407349509647 84.52440982589222 88.42486540620924 H 0.0 **** 0.06
23573 H 117.79003069972174 84.07599582975703 87.74896224135139 H 0.0 **** 0.06
23574 H 119.27036612711709 83.2992814751703 87.13801572188584 H 0.0 **** 0.06
23575 H 118.94578188053862 85.00858475055102 86.7666842558326 H 0.0 **** 0.06
23576 C 3.3063773289943583 113.784703632707 97.5536739552448 C 0.0 **** -0.24
23577 H 2.6306551414409114 112.93011565128242 97.59689433150243 H 0.0 **** 0.06
23578 H 3.9187791223293686 113.80971729387241 98.45608379024429 H 0.0 **** 0.06
23579 H 2.725267338092067 114.70379797208403 97.48268236409264 H 0.0 **** 0.06
23580 H 3.9515641816572327 113.69372365082373 96.67957976568755 H 0.0 **** 0.06
23581 C 58.615438801009134 35.87406187535299 75.72349816187761 C 0.0 **** -0.24
23582 H 57.53082343360131 35.97031672944945 75.77714133155467 H 0.0 **** 0.06
23583 H 59.040346790196395 35.98632903184074 76.72135305287802 H 0.0 **** 0.06
23584 H 59.01652025301428 36.64648288833288 75.06724477140875 H 0.0 **** 0.06
23585 H 58.87263447791679 34.89143266196021 75.32791975148311 H 0.0 **** 0.06
23586 C 136.88039982416635 99.7721144993842 23.846289721605196 C 0.0 **** -0.24
23587 H 137.21554692088174 99.56177833313558 24.862210588810626 H 0.0 **** 0.06
23588 H 137.4911287209016 100.56851454250028 23.420289397140515 H 0.0 **** 0.06
23589 H 135.83691962466503 100.08490452014627 23.86566728294872 H 0.0 **** 0.06
23590 H 136.9782995219925 98.87348547148952 23.23792014568935 H 0.0 **** 0.06
23591 C 27.758621052820445 87.3203245951162 22.005231473736814 C 0.0 **** -0.24
23592 H 27.897385722017077 87.65501833450693 20.977185496342372 H 0.0 **** 0.06
23593 H 26.747282568230304 87.56398137437444 22.332492775539976 H 0.0 **** 0.06
23594 H 28.4802622402795 87.82059867650582 22.650758301481545 H 0.0 **** 0.06
23595 H 27.9081990069416 86.24173732546562 22.058710643131747 H 0.0 **** 0.06
23596 C 100.7359243234537 91.02274463622494 21.043144570324728 C 0.0 **** -0.24
23597 H 101.5477885666763 91.57432950086027 21.519035030525032 H 0.0 **** 0.06
23598 H 100.70528153052655 91.26710202928659 19.981250247301347 H 0.0 **** 0.06
23599 H 99.78895744596002 91.29919686420573 21.507416030839067 H 0.0 **** 0.06
23600 H 100.90222283540794 89.9532106652814 21.167224780452898 H 0.0 **** 0.06
23601 C 6.354623872772947 132.99354434207834 96.36077711170778 C 0.0 **** -0.24
23602 H 6.751760915256284 131.98542558375487 96.47867024975837 H 0.0 **** 0.06
23603 H 6.661759422288526 133.60685600720313 97.20839828684811 H 0.0 **** 0.06
23604 H 5.265663100787776 132.95203496194483 96.3187470397266 H 0.0 **** 0.06
23605 H 6.737430447365796 133.43003926953213 95.43794701165686 H 0.0 **** 0.06
23606 C 41.48517148989208 129.2343931815322 125.78993340562278 C 0.0 **** -0.24
23607 H 41.243363966166385 128.17872610300267 125.91394232043368 H 0.0 **** 0.06
23608 H 42.562648801942885 129.37298524128727 125.88745785265886 H 0.0 **** 0.06
23609 H 40.97313309794208 129.81663184793163 126.5566614712439 H 0.0 **** 0.06
23610 H 41.16226262767037 129.5675563913945 124.80405503410213 H 0.0 **** 0.06
23611 C 51.53074330249797 55.04304994032134 1.803321130275549 C 0.0 **** -0.24
23612 H 51.135774831892405 55.96218206215815 2.234863784159984 H 0.0 **** 0.06
23613 H 52.604717600432764 55.14704791597988 1.6466152838925154 H 0.0 **** 0.06
23614 H 51.041814310573386 54.8507951630163 0.8475561654006469 H 0.0 **** 0.06
23615 H 51.34095280737904 54.2120611611106 2.482868987325105 H 0.0 **** 0.06
23616 C 85.16472394865033 17.86662823242795 113.4063177482141 C 0.0 **** -0.24
23617 H 85.01521844033641 18.339119718732903 112.43617863527683 H 0.0 **** 0.06
23618 H 84.33954397134028 17.184558753679994 113.6095620907524 H 0.0 **** 0.06
23619 H 85.20348505266242 18.631799028417525 114.18146436629036 H 0.0 **** 0.06
23620 H 86.10286140137353 17.310986438379928 113.39774943897564 H 0.0 **** 0.06
23621 C 56.468858123071655 44.96948458648711 102.97343951947882 C 0.0 **** -0.24
23622 H 56.354755597838135 44.82177880162246 104.04815983572897 H 0.0 **** 0.06
23623 H 55.486825914253075 45.10890858966829 102.52104282635837 H 0.0 **** 0.06
23624 H 56.95065710935937 44.09575583475788 102.53612978324657 H 0.0 **** 0.06
23625 H 57.08139586119873 45.85274348330495 102.79257409853624 H 0.0 **** 0.06
23626 C 131.4740371154548 78.05522925991892 22.431415296373018 C 0.0 **** -0.24
23627 H 131.21751389368683 77.01191235600402 22.244239458390695 H 0.0 **** 0.06
23628 H 132.37796798709797 78.31172143770948 21.879674626724068 H 0.0 **** 0.06
23629 H 131.6455805966063 78.20118755144767 23.49806851582079 H 0.0 **** 0.06
23630 H 130.65388479445886 78.69469820561449 22.10494523334964 H 0.0 **** 0.06
23631 C 53.482209602116185 97.77469368728174 10.050680708219787 C 0.0 **** -0.24
23632 H 54.27121017013974 98.42820691847561 9.678333251231319 H 0.0 **** 0.06
23633 H 52.740272388504394 97.61809769755018 9.26651235077167 H 0.0 **** 0.06
23634 H 53.006355723354375 98.23549751700321 10.915705522560017 H 0.0 **** 0.06
23635 H 53.91225717279835 96.81578207186303 10.339721635651163 H 0.0 **** 0.06
23636 C 58.90137478271973 78.2821969333765 87.81242179566925 C 0.0 **** -0.24
23637 H 58.47157546894687 79.22819531784216 87.4836062661546 H 0.0 **** 0.06
23638 H 58.677343734151606 77.50808260112888 87.07845030149065 H 0.0 **** 0.06
23639 H 58.47280702087997 78.00485033584516 88.77574916621597 H 0.0 **** 0.06
23640 H 59.981450230732946 78.38837169947652 87.91156808792095 H 0.0 **** 0.06
23641 C 116.05213419685435 25.313990366849225 6.000564244951708 C 0.0 **** -0.24
23642 H 116.84858884107734 25.658294248976887 6.6602815319334105 H 0.0 **** 0.06
23643 H 116.48716816636772 24.870425807115893 5.105576011595069 H 0.0 **** 0.06
23644 H 115.42354516092206 26.158742646900293 5.7190070276934755 H 0.0 **** 0.06
23645 H 115.447628605783 24.569735544519006 6.518767681070386 H 0.0 **** 0.06
23646 C 98.6286781346472 38.052980090054064 75.86349105096082 C 0.0 **** -0.24
23647 H 99.31121091322771 38.878201793109696 76.0660551105401 H 0.0 **** 0.06
23648 H 97.97588543960356 37.90279787688661 76.72411124609968 H 0.0 **** 0.06
23649 H 99.20118231729111 37.14498874858796 75.67838386294045 H 0.0 **** 0.06
23650 H 98.02524107790154 38.28793818601605 74.98615729592001 H 0.0 **** 0.06
23651 C 119.98124218595416 43.70967801615564 115.09982495584131 C 0.0 **** -0.24
23652 H 120.35885640317557 43.452529386808855 114.11041547225332 H 0.0 **** 0.06
23653 H 118.9524768509732 44.06234656871698 115.01429174800029 H 0.0 **** 0.06
23654 H 120.60003498971105 44.49557903455283 115.532152478684 H 0.0 **** 0.06
23655 H 120.01200393699366 42.82906285979889 115.74024876238599 H 0.0 **** 0.06
23656 C 14.146720374108497 112.09060126267667 105.48074336875138 C 0.0 **** -0.24
23657 H 13.872695415285847 111.65180234119919 104.52109608387494 H 0.0 **** 0.06
23658 H 13.24270290469127 112.34850277447285 106.03240203711749 H 0.0 **** 0.06
23659 H 14.740845496127065 112.98823920713846 105.31291468704657 H 0.0 **** 0.06
23660 H 14.73034386137013 111.3703476630256 106.05442224850296 H 0.0 **** 0.06
23661 C 53.536082350952256 79.77576873266355 39.11236888127676 C 0.0 **** -0.24
23662 H 52.98712285043028 79.6406680234121 38.181352099396264 H 0.0 **** 0.06
23663 H 53.20231707772045 79.03647494343875 39.8412108028872 H 0.0 **** 0.06
23664 H 53.352998129184726 80.777715727611 39.50016578053794 H 0.0 **** 0.06
23665 H 54.60325253578948 79.64783538492173 38.92669984601999 H 0.0 **** 0.06
23666 C 113.40823947119429 114.24017876997979 27.310572034504162 C 0.0 **** -0.24
23667 H 114.349222032397 113.69720692763423 27.232659404196852 H 0.0 **** 0.06
23668 H 113.5853321051186 115.30239513835986 27.138506053521837 H 0.0 **** 0.06
23669 H 112.98806644930613 114.09896719281733 28.306338563852734 H 0.0 **** 0.06
23670 H 112.70827575348676 113.86296417941432 26.564500292874584 H 0.0 **** 0.06
23671 C 134.99408637893396 9.102938647843132 98.84015310759416 C 0.0 **** -0.24
23672 H 134.72990347767558 9.398605313859875 99.85620908423516 H 0.0 **** 0.06
23673 H 134.25847892587677 8.390377886085105 98.46639928681927 H 0.0 **** 0.06
23674 H 135.98129384856173 8.640043862870328 98.8425875958319 H 0.0 **** 0.06
23675 H 135.00703053066593 9.983307288781717 98.1977688329947 H 0.0 **** 0.06
23676 C 33.23290019251996 115.05181868485678 133.15292046586285 C 0.0 **** -0.24
23677 H 32.198729789478364 114.76445632924893 133.34092973392686 H 0.0 **** 0.06
23678 H 33.68100061559642 114.3527787186388 132.44647710836813 H 0.0 **** 0.06
23679 H 33.79180733124312 115.0313518291403 134.08865867382312 H 0.0 **** 0.06
23680 H 33.25931720926897 116.05857585601242 132.73495965353732 H 0.0 **** 0.06
23681 C 75.39417829766907 9.393524154094763 53.03997926260982 C 0.0 **** -0.24
23682 H 76.14231430579845 10.185325684545347 53.09045661068018 H 0.0 **** 0.06
23683 H 74.43096948211385 9.783630003167445 53.368769870599124 H 0.0 **** 0.06
23684 H 75.6942384060002 8.569700333782748 53.68751482355714 H 0.0 **** 0.06
23685 H 75.31168056532374 9.03735548692157 52.012807370340596 H 0.0 **** 0.06
23686 C 81.1908761560422 128.9480770078598 53.016122762262626 C 0.0 **** -0.24
23687 H 81.871151421203 128.64725692855347 53.81307001194 H 0.0 **** 0.06
23688 H 80.93990004466959 128.0798793421506 52.40701123605368 H 0.0 **** 0.06
23689 H 81.67272052251964 129.70266080602616 52.394072620309544 H 0.0 **** 0.06
23690 H 80.28219169474978 129.36266081842436 53.45204919329143 H 0.0 **** 0.06
23691 C 60.47093940983693 84.23239971089757 6.079503072319596 C 0.0 **** -0.24
23692 H 60.53873477601739 84.80098570652464 5.151724089159188 H 0.0 **** 0.06
23693 H 59.43330478637007 83.95261497777072 6.258965909757876 H 0.0 **** 0.06
23694 H 60.83167397704686 84.84395859702117 6.906610906339495 H 0.0 **** 0.06
23695 H 61.08177739584487 83.3332357352007 5.999959661150797 H 0.0 **** 0.06
23696 C 129.74984758148761 119.2511934411018 125.94046677285587 C 0.0 **** -0.24
23697 H 128.80844386098119 118.9462376640181 125.48173139830263 H 0.0 **** 0.06
23698 H 129.77195447927798 120.33654435202118 126.03495864931875 H 0.0 **** 0.06
23699 H 130.58032033452994 118.9230128551834 125.31542391861069 H 0.0 **** 0.06
23700 H 129.8369791766563 118.7973107443508 126.92766667533982 H 0.0 **** 0.06
23701 C 15.631749392511303 71.63729879297921 7.0668140092073735 C 0.0 **** -0.24
23702 H 14.650538802139508 72.02054703055205 7.346506013613748 H 0.0 **** 0.06
23703 H 16.018598356912555 71.00893320472562 7.869786413304453 H 0.0 **** 0.06
23704 H 16.31283786582275 72.47196390565503 6.898514458634921 H 0.0 **** 0.06
23705 H 15.545280311141305 71.0479906187693 6.1538189129674095 H 0.0 **** 0.06
23706 C 81.09857043496302 28.276884713616226 26.629131514360814 C 0.0 **** -0.24
23707 H 81.71064437355741 27.51403162486602 27.11117483147998 H 0.0 **** 0.06
23708 H 81.68462449407457 29.18850317813076 26.508559873868435 H 0.0 **** 0.06
23709 H 80.22518437121798 28.484470868833398 27.245937604001952 H 0.0 **** 0.06
23710 H 80.77696278821104 27.91906500596764 25.650707949856837 H 0.0 **** 0.06
23711 C 10.834743974419439 43.55587814143157 71.91328675441159 C 0.0 **** -0.24
23712 H 11.47377999307389 42.74304417153978 72.26002876429979 H 0.0 **** 0.06
23713 H 9.92832899941942 43.14227744303613 71.47200409676816 H 0.0 **** 0.06
23714 H 11.368773942328346 44.14157880474525 71.16396515255852 H 0.0 **** 0.06
23715 H 10.571636115667445 44.19615121724256 72.75465210733654 H 0.0 **** 0.06
23716 C 122.19038488965487 6.11264301780815 65.30796921145702 C 0.0 **** -0.24
23717 H 122.34724856507037 6.456179910364945 66.33033081128377 H 0.0 **** 0.06
23718 H 123.14809867434512 5.834159236536291 64.86750334059934 H 0.0 **** 0.06
23719 H 121.73934606527288 6.913135790827695 64.72098165413468 H 0.0 **** 0.06
23720 H 121.52705007284963 5.248073586968744 65.31313205266795 H 0.0 **** 0.06
23721 C 46.795088184986525 21.343966202725653 109.77341720232462 C 0.0 **** -0.24
23722 H 47.637548893532255 21.563000371030512 110.42937760111013 H 0.0 **** 0.06
23723 H 46.66662138924437 22.16157799161823 109.06269897398857 H 0.0 **** 0.06
23724 H 45.88956458429931 21.234250020183026 110.3693789351837 H 0.0 **** 0.06
23725 H 46.988160287235644 20.41821023311212 109.23071549471382 H 0.0 **** 0.06
23726 C 23.408150357863775 38.429088679088636 94.45148978545745 C 0.0 **** -0.24
23727 H 22.78472406979472 37.540550282790605 94.55080363073807 H 0.0 **** 0.06
23728 H 24.454919284401996 38.154809646579565 94.57846553544806 H 0.0 **** 0.06
23729 H 23.127682431645468 39.15550663403195 95.21395010565857 H 0.0 **** 0.06
23730 H 23.263207145001502 38.86487966139987 93.46333255454181 H 0.0 **** 0.06
23731 C 136.75535886200225 7.641161461297941 62.47574524426636 C 0.0 **** -0.24
23732 H 135.77145186861182 7.904618024625762 62.86426003735018 H 0.0 **** 0.06
23733 H 137.41055940175735 7.364528253317559 63.302403234369464 H 0.0 **** 0.06
23734 H 137.1781022475479 8.495518929716525 61.94655488645439 H 0.0 **** 0.06
23735 H 136.66142681572538 6.799007358025676 61.78955843603275 H 0.0 **** 0.06
23736 C 44.824754961142276 125.33171377020591 43.85115989278474 C 0.0 **** -0.24
23737 H 45.10176343948575 124.45275357489811 44.4336041908939 H 0.0 **** 0.06
23738 H 44.37300645768113 126.0747365703399 44.509553043767355 H 0.0 **** 0.06
23739 H 44.109506656461406 125.04609599571023 43.080706552865564 H 0.0 **** 0.06
23740 H 45.71471350830501 125.75245752435052 43.383663885923355 H 0.0 **** 0.06
23741 C 61.67209547765077 95.40489451571223 48.957158115839604 C 0.0 **** -0.24
23742 H 61.852643611777836 94.36440128604718 49.226869565180266 H 0.0 **** 0.06
23743 H 62.43885588331352 96.03571182459636 49.40854280142236 H 0.0 **** 0.06
23744 H 60.69079211582874 95.70934502707998 49.32119473919158 H 0.0 **** 0.06
23745 H 61.70667214319346 95.51037583382842 47.87279737777874 H 0.0 **** 0.06
23746 C 19.95840337761058 0.34455440349699984 113.18701641448706 C 0.0 **** -0.24
23747 H 20.911390048791816 0.8724584641659021 113.2182535248038 H 0.0 **** 0.06
23748 H 19.91232662134496 -0.37029809688783644 114.00977943537731 H 0.0 **** 0.06
23749 H 19.866659328970968 -0.18542133102613434 112.23929135779542 H 0.0 **** 0.06
23750 H 19.14313667506866 1.062131016665262 113.28310024513507 H 0.0 **** 0.06
23751 C 109.2639687840912 95.6302833942255 103.27054898291831 C 0.0 **** -0.24
23752 H 108.2906880004218 95.17357402896306 103.08854026163621 H 0.0 **** 0.06
23753 H 109.59386600610108 96.15325945803647 102.37304081578723 H 0.0 **** 0.06
23754 H 109.98587605216662 94.85466423052674 103.52674204186972 H 0.0 **** 0.06
23755 H 109.18375553596286 96.3384260633311 104.09603666529829 H 0.0 **** 0.06
23756 C 22.19248331348149 41.72890460767236 95.94542665226021 C 0.0 **** -0.24
23757 H 23.252263731065113 41.4722400613343 95.93503982766764 H 0.0 **** 0.06
23758 H 21.76895796800477 41.56133012937799 94.95483432097186 H 0.0 **** 0.06
23759 H 22.07593236094027 42.777694721213564 96.21833731797756 H 0.0 **** 0.06
23760 H 21.674730338309246 41.103914807780896 96.67352259449493 H 0.0 **** 0.06
23761 C 30.613621044333456 116.207090990744 83.3427953824164 C 0.0 **** -0.24
23762 H 30.319311083496018 115.48545648345515 82.58157840445602 H 0.0 **** 0.06
23763 H 29.722428041053092 116.66281444932551 83.77444828476419 H 0.0 **** 0.06
23764 H 31.234945216964263 116.98046695594238 82.89005152715148 H 0.0 **** 0.06
23765 H 31.177799835820565 115.69962607425288 84.12510331329395 H 0.0 **** 0.06
23766 C 119.18075970142866 44.17518907937455 8.460114670245392 C 0.0 **** -0.24
23767 H 118.79580831444929 43.786497169844154 9.40252862336088 H 0.0 **** 0.06
23768 H 120.26623672563801 44.06681294068272 8.439081053443456 H 0.0 **** 0.06
23769 H 118.91857395965869 45.229502797089395 8.36727975234584 H 0.0 **** 0.06
23770 H 118.74415188917322 43.61694355818827 7.6315884806616126 H 0.0 **** 0.06
23771 C 17.6767045978566 125.89613353529981 13.902636319197313 C 0.0 **** -0.24
23772 H 18.587184106099272 126.48156638323597 14.034664934962933 H 0.0 **** 0.06
23773 H 17.478013977555918 125.76778366718356 12.838765370565739 H 0.0 **** 0.06
23774 H 16.840349411470584 126.41835727024812 14.367498066445819 H 0.0 **** 0.06
23775 H 17.801973651936805 124.92036230262616 14.370620473310652 H 0.0 **** 0.06
23776 C 80.82394900063527 34.13029369066001 31.248852907772545 C 0.0 **** -0.24
23777 H 80.29539164875231 34.69212101181756 32.01896539859766 H 0.0 **** 0.06
23778 H 81.87091241565766 34.43372232206943 31.232186997959246 H 0.0 **** 0.06
23779 H 80.37089122029862 34.33106808411577 30.27790009605073 H 0.0 **** 0.06
23780 H 80.7573651059556 33.063829893653065 31.466893438235815 H 0.0 **** 0.06
23781 C 65.4923361663324 125.972535135316 45.65539276311817 C 0.0 **** -0.24
23782 H 65.59292077153859 126.6855404712157 44.83624793195169 H 0.0 **** 0.06
23783 H 64.82725489050671 126.3836036935421 46.414738922811296 H 0.0 **** 0.06
23784 H 66.47262740090002 125.78412667175799 46.0938222732174 H 0.0 **** 0.06
23785 H 65.07799734878184 125.03928835444275 45.2750208197013 H 0.0 **** 0.06
23786 C 7.270605049554661 13.65324218340217 32.1351635876192 C 0.0 **** -0.24
23787 H 7.879814825842743 14.438418577893259 32.58243589929467 H 0.0 **** 0.06
23788 H 6.466386597349754 13.384078193816876 32.82089498683611 H 0.0 **** 0.06
23789 H 7.891693093337068 12.779425966615065 31.941421840598693 H 0.0 **** 0.06
23790 H 6.84593382035473 14.012476747959212 31.198345095814688 H 0.0 **** 0.06
23791 C 26.217103767313375 83.78503287341545 101.84287546859326 C 0.0 **** -0.24
23792 H 25.776776574146396 82.87610150596487 102.25434217666036 H 0.0 **** 0.06
23793 H 27.295792224899117 83.76783941377317 101.9971208496508 H 0.0 **** 0.06
23794 H 25.790831575537 84.65363553124234 102.34581935299369 H 0.0 **** 0.06
23795 H 26.001889868113835 83.84155941892615 100.7767184909098 H 0.0 **** 0.06
23796 C 56.54562203599839 32.49457551319563 136.49222311643388 C 0.0 **** -0.24
23797 H 56.058517645357696 33.27151327996505 135.90174775812068 H 0.0 **** 0.06
23798 H 57.153444616844595 31.86927824030964 135.83739172918592 H 0.0 **** 0.06
23799 H 55.78849863301335 31.88235068178463 136.98113407288497 H 0.0 **** 0.06
23800 H 57.18119418420089 32.95785434368236 137.24615997082486 H 0.0 **** 0.06
23801 C 32.17842078817023 118.67975676098345 0.2415468888182204 C 0.0 **** -0.24
23802 H 32.071554974497445 119.71246299542548 0.5709106897649008 H 0.0 **** 0.06
23803 H 32.930398304139885 118.17978451456759 0.8528673276421159 H 0.0 **** 0.06
23804 H 32.48816803188208 118.66098066458147 -0.8035005645474484 H 0.0 **** 0.06
23805 H 31.223952404543354 118.16411705734808 0.3457718691890932 H 0.0 **** 0.06
23806 C 23.83350696437236 24.493572475593368 7.33530055872086 C 0.0 **** -0.24
23807 H 24.11102950224179 23.43963798007033 7.307382752204234 H 0.0 **** 0.06
23808 H 24.73126043282616 25.10757299007929 7.250617420694596 H 0.0 **** 0.06
23809 H 23.33178678167971 24.712135955131885 8.27764173771152 H 0.0 **** 0.06
23810 H 23.16218157216528 24.71485497525603 6.505693226774213 H 0.0 **** 0.06
23811 C 127.20773878566541 39.15021426960146 92.72970602601495 C 0.0 **** -0.24
23812 H 126.8225551748735 40.1030412538845 92.36792523488757 H 0.0 **** 0.06
23813 H 127.42082417449315 38.499458496094064 91.88159482705109 H 0.0 **** 0.06
23814 H 126.4653268945156 38.678408423403255 93.37323914897918 H 0.0 **** 0.06
23815 H 128.12317988314155 39.320134073436634 93.29637957889432 H 0.0 **** 0.06
23816 C 131.86257435956475 48.83286772886481 16.30877388105776 C 0.0 **** -0.24
23817 H 131.57985967425523 47.86332822635356 16.71818149698825 H 0.0 **** 0.06
23818 H 132.75500293069754 49.19630419161159 16.817932234434807 H 0.0 **** 0.06
23819 H 131.04613889627322 49.54021399247486 16.45627128908737 H 0.0 **** 0.06
23820 H 132.06707667478904 48.73189852889598 15.242706291857274 H 0.0 **** 0.06
23821 C 81.13028175911766 129.48888226196414 9.659662123487692 C 0.0 **** -0.24
23822 H 80.2354903659442 128.86642200143382 9.654216917899419 H 0.0 **** 0.06
23823 H 81.16809019608877 130.06175458684777 10.585689033804186 H 0.0 **** 0.06
23824 H 81.10143924626858 130.17234467389488 8.809950767221892 H 0.0 **** 0.06
23825 H 82.01356298751921 128.85550409431676 9.585585327591616 H 0.0 **** 0.06
23826 C 30.41649415005935 30.76168600409585 61.51201351574991 C 0.0 **** -0.24
23827 H 29.394307690300536 30.92453470766779 61.85549606493822 H 0.0 **** 0.06
23828 H 30.407824874275207 30.519284889662742 60.448832131628706 H 0.0 **** 0.06
23829 H 30.860151673389453 29.937320050794256 62.069041139360465 H 0.0 **** 0.06
23830 H 31.00169114579211 31.667422018225892 61.67304407334191 H 0.0 **** 0.06
23831 C 66.01264692126198 133.44847973840353 2.6392882328372878 C 0.0 **** -0.24
23832 H 65.22213921582151 133.74353540968465 3.3301267320811974 H 0.0 **** 0.06
23833 H 66.80483797117957 134.19746864222526 2.6539188493971437 H 0.0 **** 0.06
23834 H 65.60391788901693 133.3701302468016 1.6325618886734787 H 0.0 **** 0.06
23835 H 66.41792846771978 132.48341498152854 2.943784464536833 H 0.0 **** 0.06
23836 C 111.2287013293874 77.11227961217251 117.2928227506055 C 0.0 **** -0.24
23837 H 111.21600802722494 78.12440224112696 116.88725306566502 H 0.0 **** 0.06
23838 H 111.52594473921104 77.14682557331066 118.34156488011061 H 0.0 **** 0.06
23839 H 111.93954910864139 76.50583981471087 116.73288418322963 H 0.0 **** 0.06
23840 H 110.23374192632079 76.67661677361465 117.21056908509777 H 0.0 **** 0.06
23841 C 116.56731863256687 134.67725783890742 105.91428579501758 C 0.0 **** -0.24
23842 H 117.54853556778016 134.2229742627361 106.04822150279352 H 0.0 **** 0.06
23843 H 116.68341961759864 135.74228196457688 105.71217627491978 H 0.0 **** 0.06
23844 H 115.97801975937045 134.5421976420467 106.82116926942467 H 0.0 **** 0.06
23845 H 116.0578892902389 134.20247401284794 105.07603159572955 H 0.0 **** 0.06
23846 C 18.604730609167156 18.35098087018423 19.69472825865529 C 0.0 **** -0.24
23847 H 19.048092553370438 19.25263983686085 20.11791424760304 H 0.0 **** 0.06
23848 H 17.56841379366284 18.549470436959837 19.42341781158754 H 0.0 **** 0.06
23849 H 18.641501914004785 17.548930856441473 20.43146408419514 H 0.0 **** 0.06
23850 H 19.164077015358586 18.05448806231226 18.807308018097388 H 0.0 **** 0.06
23851 C 128.1620406483816 3.6184046370202125 40.44242420389064 C 0.0 **** -0.24
23852 H 129.09905427032515 4.046161659015464 40.08530449996083 H 0.0 **** 0.06
23853 H 127.58681135505867 3.2464808546124146 39.595096652537364 H 0.0 **** 0.06
23854 H 127.58841560853227 4.385045325858826 40.963453413049876 H 0.0 **** 0.06
23855 H 128.37561726360633 2.796689381084292 41.12648352901502 H 0.0 **** 0.06
23856 C 114.53084912856025 62.29286124674155 81.70592387065619 C 0.0 **** -0.24
23857 H 115.12653572217448 63.10086283682334 82.13083207436944 H 0.0 **** 0.06
23858 H 114.6178248932919 61.408559787503535 82.33630800229594 H 0.0 **** 0.06
23859 H 114.89285849334411 62.06341263865609 80.70383774295988 H 0.0 **** 0.06
23860 H 113.48632754792305 62.6020745658966 81.65370403526799 H 0.0 **** 0.06
23861 C 28.132797814492136 131.34774938923812 126.57788404108695 C 0.0 **** -0.24
23862 H 27.595125144368183 131.14810149818194 127.50522697601211 H 0.0 **** 0.06
23863 H 28.7234226011862 132.25748229043106 126.68949725295109 H 0.0 **** 0.06
23864 H 27.418075536114657 131.47518751369066 125.76497528779036 H 0.0 **** 0.06
23865 H 28.79292122736055 130.5099185761362 126.35362377656078 H 0.0 **** 0.06
23866 C 134.4811481550541 24.52545712853231 85.16150621151957 C 0.0 **** -0.24
23867 H 134.2491979991572 25.491893804885706 84.71535681996524 H 0.0 **** 0.06
23868 H 133.56090850120236 23.954408131303524 85.28962780241638 H 0.0 **** 0.06
23869 H 134.95296602378986 24.677348276552834 86.13273537083717 H 0.0 **** 0.06
23870 H 135.16120740294178 23.978417797626378 84.50966314489494 H 0.0 **** 0.06
23871 C 65.944878947513 47.20076560600302 119.55526042098862 C 0.0 **** -0.24
23872 H 65.5708215909446 46.17791996469964 119.5760421103816 H 0.0 **** 0.06
23873 H 66.81181095520964 47.284592525783125 120.21049701608223 H 0.0 **** 0.06
23874 H 65.16436558108364 47.87966230836258 119.89659185081331 H 0.0 **** 0.06
23875 H 66.2325909480041 47.46075830062685 118.53618500581004 H 0.0 **** 0.06
23876 C 87.62542194967193 14.345917683713253 78.89312531286336 C 0.0 **** -0.24
23877 H 87.2562286250797 13.41746194868395 78.45791239668708 H 0.0 **** 0.06
23878 H 87.74095182591788 14.221286549549689 79.97064843322875 H 0.0 **** 0.06
23879 H 86.91570482121756 15.147600535229799 78.69334748198881 H 0.0 **** 0.06
23880 H 88.59112441925981 14.595710309114224 78.45070518745217 H 0.0 **** 0.06
23881 C 127.91206160322884 118.65588882088318 136.96385312976884 C 0.0 **** -0.24
23882 H 127.42886074654098 119.49641817296717 136.46684875303774 H 0.0 **** 0.06
23883 H 127.22646253735888 117.80963603812174 136.99514477620406 H 0.0 **** 0.06
23884 H 128.18245929456532 118.94229653650663 137.98027074944855 H 0.0 **** 0.06
23885 H 128.81047345645646 118.37698734399578 136.41449795686452 H 0.0 **** 0.06
23886 C 75.70431185225738 10.736866981600656 15.091224398960556 C 0.0 **** -0.24
23887 H 75.54584105807493 10.172345051437588 16.01010527336649 H 0.0 **** 0.06
23888 H 75.71206063267638 10.053254049158795 14.241160010451125 H 0.0 **** 0.06
23889 H 76.65888110022834 11.259833975016818 15.146025109042618 H 0.0 **** 0.06
23890 H 74.89947491120623 11.461327772977569 14.966885667102986 H 0.0 **** 0.06
23891 C 126.13507939264892 80.93849710416146 120.53175012417316 C 0.0 **** -0.24
23892 H 127.00839568866004 81.57461576020465 120.67342839314111 H 0.0 **** 0.06
23893 H 125.89027275328081 80.88963254711881 119.47001329435903 H 0.0 **** 0.06
23894 H 125.28998293433378 81.35466345318291 121.0806769278282 H 0.0 **** 0.06
23895 H 126.3518953287558 79.9361805720167 120.90156696456614 H 0.0 **** 0.06
23896 C 14.461437061178927 18.858052225800854 120.07771646857513 C 0.0 **** -0.24
23897 H 13.42673130210899 19.17347325191104 119.94786433070603 H 0.0 **** 0.06
23898 H 14.486168864834184 17.81100970513304 120.38116893755046 H 0.0 **** 0.06
23899 H 14.934251756493111 19.470418697459557 120.84528575658761 H 0.0 **** 0.06
23900 H 14.9976029993215 18.977412921149657 119.13659365936964 H 0.0 **** 0.06
23901 C 85.10248848729876 131.42901783617177 123.2047872309306 C 0.0 **** -0.24
23902 H 84.1611890779394 131.75089859681506 122.75806101575097 H 0.0 **** 0.06
23903 H 85.84354920313436 132.22088572133157 123.09924910736834 H 0.0 **** 0.06
23904 H 85.45518973602887 130.53046276228906 122.69864331407791 H 0.0 **** 0.06
23905 H 84.9482978754983 131.21376041419492 124.26146054512623 H 0.0 **** 0.06
23906 C 91.84007406913253 116.63590642407138 134.52339971631463 C 0.0 **** -0.24
23907 H 91.56470577270179 116.47841281298292 133.48054108279248 H 0.0 **** 0.06
23908 H 90.94091810910083 116.80771856206178 135.1140867361971 H 0.0 **** 0.06
23909 H 92.49580066387477 117.50360919931879 134.59776774143097 H 0.0 **** 0.06
23910 H 92.3601067638065 115.75384534798653 134.8984695292883 H 0.0 **** 0.06
23911 C 113.72063839456061 115.12758297112134 67.04678913703385 C 0.0 **** -0.24
23912 H 112.63808572464774 115.22163816274963 66.95001365611745 H 0.0 **** 0.06
23913 H 114.19243052388504 116.0673296120844 66.76125724847016 H 0.0 **** 0.06
23914 H 114.0748439554427 114.329255894796 66.39634908770711 H 0.0 **** 0.06
23915 H 113.97295593252181 114.89285746080776 68.08111252894842 H 0.0 **** 0.06
23916 C 46.635838431477566 117.33882784531463 34.65491453025226 C 0.0 **** -0.24
23917 H 45.87479005329226 117.67850997039494 35.357840208201885 H 0.0 **** 0.06
23918 H 46.56432561821538 117.91744261455443 33.73396343152783 H 0.0 **** 0.06
23919 H 46.479922666410516 116.28259586253773 34.43363558507605 H 0.0 **** 0.06
23920 H 47.62374687640954 117.47626062222614 35.09487045129558 H 0.0 **** 0.06
23921 C 131.173621102997 58.620407173302766 123.74424204447024 C 0.0 **** -0.24
23922 H 130.21303760635593 59.032001084210904 124.0565526797264 H 0.0 **** 0.06
23923 H 131.62895342989046 58.088258675264015 124.5800300283125 H 0.0 **** 0.06
23924 H 131.8302049385074 59.4307898435754 123.42862578121213 H 0.0 **** 0.06
23925 H 131.02103539876964 57.93086996115606 122.91427874786734 H 0.0 **** 0.06
23926 C 55.28713719543396 95.35303482519316 3.19676057320234 C 0.0 **** -0.24
23927 H 55.88442392181619 94.7213880689497 3.8548426623384557 H 0.0 **** 0.06
23928 H 54.95146702910755 94.76937517552656 2.3390548801648947 H 0.0 **** 0.06
23929 H 55.893009609026805 96.19105854564665 2.8515925808284805 H 0.0 **** 0.06
23930 H 54.421834132205646 95.72924338341812 3.7418135588466725 H 0.0 **** 0.06
23931 C 108.69423516995607 11.56875944086103 110.99304892073923 C 0.0 **** -0.24
23932 H 109.43830210797469 12.304700147464729 110.687544825911 H 0.0 **** 0.06
23933 H 109.01301660666205 11.094920852036054 111.92223432493245 H 0.0 **** 0.06
23934 H 108.59293436297634 10.81160876571225 110.21534648701842 H 0.0 **** 0.06
23935 H 107.73543220431395 12.06357150856789 111.14588191671137 H 0.0 **** 0.06
23936 C 7.810967646951635 75.02677656183806 24.450723972069312 C 0.0 **** -0.24
23937 H 8.502296050129605 74.55340039540602 25.147221682582 H 0.0 **** 0.06
23938 H 7.584531082188768 76.03606171526053 24.793585451982587 H 0.0 **** 0.06
23939 H 6.890165185200562 74.44450861483534 24.400924514331855 H 0.0 **** 0.06
23940 H 8.265930755468435 75.07232036750213 23.460502550821552 H 0.0 **** 0.06
23941 C 110.97298841364847 78.89142575461585 131.55377780066917 C 0.0 **** -0.24
23942 H 111.14685927349166 79.9600112731776 131.42842245622802 H 0.0 **** 0.06
23943 H 111.54815335939767 78.52683318991933 132.40476228948597 H 0.0 **** 0.06
23944 H 111.28499143839653 78.36575297175591 130.6512090723791 H 0.0 **** 0.06
23945 H 109.91108891879969 78.71425355378898 131.7290022598629 H 0.0 **** 0.06
23946 C 32.37063062829719 61.07857339368675 95.83461953596475 C 0.0 **** -0.24
23947 H 31.483054912132616 61.11560385519067 95.20175365127272 H 0.0 **** 0.06
23948 H 32.32848842742766 60.19030365954339 96.46550146548944 H 0.0 **** 0.06
23949 H 32.4061150204154 61.96897688735214 96.46155692763404 H 0.0 **** 0.06
23950 H 33.26111229846515 61.038221940679364 95.20894859844071 H 0.0 **** 0.06
23951 C 28.109073546016106 37.6779344618036 20.621042955433325 C 0.0 **** -0.24
23952 H 29.144960162860457 37.79395041805382 20.939247703376367 H 0.0 **** 0.06
23953 H 28.044347327289415 37.81287733766295 19.541238801249023 H 0.0 **** 0.06
23954 H 27.490216263569124 38.42558062596883 21.118718562915774 H 0.0 **** 0.06
23955 H 27.757282091568385 36.68110423964496 20.88573393410303 H 0.0 **** 0.06
23956 C 101.81507163372953 48.23195460885643 28.841723931804637 C 0.0 **** -0.24
23957 H 102.21656123306357 47.26943543670342 29.160847842570746 H 0.0 **** 0.06
23958 H 101.83336602972449 48.29002375653448 27.75297538584838 H 0.0 **** 0.06
23959 H 102.4216568738851 49.03464489972828 29.259398016033657 H 0.0 **** 0.06
23960 H 100.78875692234155 48.33066213504094 29.194500025291347 H 0.0 **** 0.06
23961 C 103.43929471360849 59.44264571274414 19.542141668632894 C 0.0 **** -0.24
23962 H 104.2343140714218 59.0175876839823 20.153852302787186 H 0.0 **** 0.06
23963 H 103.84699821047974 59.74948531076723 18.579220925383368 H 0.0 **** 0.06
23964 H 103.01468690170788 60.30906664376397 20.05025985102401 H 0.0 **** 0.06
23965 H 102.66128608193469 58.69540467057547 19.386265277296673 H 0.0 **** 0.06
23966 C 73.65966875588578 69.07158153417993 99.65383598869208 C 0.0 **** -0.24
23967 H 73.57446742641264 68.70048306230596 100.67490096886607 H 0.0 **** 0.06
23968 H 73.65475326664375 68.23002616165053 98.96042954309688 H 0.0 **** 0.06
23969 H 74.59092256339261 69.62761193227306 99.54453998840326 H 0.0 **** 0.06
23970 H 72.81735575802827 69.727674104283 99.43489443296608 H 0.0 **** 0.06
23971 C 4.316832268123619 62.85475594543267 129.15132720582835 C 0.0 **** -0.24
23972 H 4.617717118209953 62.18983191932689 129.9614342645898 H 0.0 **** 0.06
23973 H 3.2475725408625067 63.054431090725004 129.22400836466704 H 0.0 **** 0.06
23974 H 4.534273366354682 62.382260488667285 128.1939158884075 H 0.0 **** 0.06
23975 H 4.868711151072432 63.791871692722 129.22787693078112 H 0.0 **** 0.06
23976 C 25.977769465385286 60.901684066040474 102.48850678146312 C 0.0 **** -0.24
23977 H 26.986881124903604 61.2867715584743 102.63367676370353 H 0.0 **** 0.06
23978 H 25.253962034909748 61.63441138076125 102.84633576481838 H 0.0 **** 0.06
23979 H 25.859287739617443 59.972046573770726 103.04575475794803 H 0.0 **** 0.06
23980 H 25.810262792728714 60.712388464220865 101.42772933087048 H 0.0 **** 0.06
23981 C 129.96464125346125 127.61533757104888 36.82990011813311 C 0.0 **** -0.24
23982 H 130.42664324581708 127.75328090416588 35.851763670705395 H 0.0 **** 0.06
23983 H 129.2742132283054 126.77235748457271 36.79058329634529 H 0.0 **** 0.06
23984 H 129.42139373530873 128.51909476309208 37.10526372498481 H 0.0 **** 0.06
23985 H 130.73914612221822 127.41713500187281 37.571143690796134 H 0.0 **** 0.06
23986 C 33.860783394610195 58.12189044480466 112.94655709522956 C 0.0 **** -0.24
23987 H 33.95213775747784 58.335908521988685 111.88154455130714 H 0.0 **** 0.06
23988 H 34.33584809174304 58.91810996931383 113.51981887875908 H 0.0 **** 0.06
23989 H 34.348711868972366 57.172975085295064 113.16968377539379 H 0.0 **** 0.06
23990 H 32.80643586024743 58.060568202620914 113.21518117545827 H 0.0 **** 0.06
23991 C 76.96330013520085 92.48881674247664 86.98505634208028 C 0.0 **** -0.24
23992 H 76.96779314768901 93.3119942732767 86.26976012196214 H 0.0 **** 0.06
23993 H 76.15497860698082 91.79932526729216 86.74012797388428 H 0.0 **** 0.06
23994 H 76.8129958017652 92.88252862178152 87.99034865301287 H 0.0 **** 0.06
23995 H 77.91701064978662 91.96346633363525 86.93919520772207 H 0.0 **** 0.06
23996 C 111.57702083828903 71.16036322310136 56.65015382658075 C 0.0 **** -0.24
23997 H 111.99683336813882 71.80657363622 57.42195475214807 H 0.0 **** 0.06
23998 H 111.03601438106188 71.76677716238146 55.92464286966647 H 0.0 **** 0.06
23999 H 110.89432822846234 70.4443946085184 57.107915567007225 H 0.0 **** 0.06
24000 H 112.3829549149226 70.6250545339352 56.148929429134725 H 0.0 **** 0.06
24001 C 23.41739466588723 91.64518633243569 25.564426515552327 C 0.0 **** -0.24
24002 H 23.30220672600285 92.70727969902771 25.7802979405389 H 0.0 **** 0.06
24003 H 24.467300418115997 91.36810837692065 25.654057613768543 H 0.0 **** 0.06
24004 H 23.072832624506987 91.44136817142169 24.54999944794895 H 0.0 **** 0.06
24005 H 22.8260593530878 91.06447163026536 26.272737935753753 H 0.0 **** 0.06
24006 C 116.50930416104768 99.16593156647349 61.342875571796185 C 0.0 **** -0.24
24007 H 116.50342333023127 99.60078604381084 60.342559552593116 H 0.0 **** 0.06
24008 H 115.7188159325745 99.61966357951366 61.939797371135 H 0.0 **** 0.06
24009 H 117.4746760740108 99.35228642685706 61.81379914645538 H 0.0 **** 0.06
24010 H 116.34108021873567 98.09083417564668 61.27168977098876 H 0.0 **** 0.06
24011 C 55.795834711612855 21.9821948267047 51.952676112254935 C 0.0 **** -0.24
24012 H 56.36932315778529 22.234867519541552 52.84380377751384 H 0.0 **** 0.06
24013 H 56.386613976986865 21.322433181658354 51.3159473092571 H 0.0 **** 0.06
24014 H 55.55336241654044 22.89378491358937 51.406133543189526 H 0.0 **** 0.06
24015 H 54.87512735651103 21.47731734625887 52.243998491472624 H 0.0 **** 0.06
24016 C 84.75846191067114 2.577282652149382 105.24430086475832 C 0.0 **** -0.24
24017 H 84.78603034293599 1.955428968582197 106.13918021273767 H 0.0 **** 0.06
24018 H 83.72260274328 2.8129314495998052 104.99851329277931 H 0.0 **** 0.06
24019 H 85.21658868028614 2.041313730430648 104.41430017538278 H 0.0 **** 0.06
24020 H 85.30804038385035 3.5011225780425903 105.42763499285911 H 0.0 **** 0.06
24021 C 77.34107147736097 82.77995855913393 26.815037079056225 C 0.0 **** -0.24
24022 H 76.635901679403 82.61359684137362 27.6297784039549 H 0.0 **** 0.06
24023 H 78.25602905363809 83.22207475120562 27.212083761661916 H 0.0 **** 0.06
24024 H 76.89763100999765 83.45654584567922 26.08483489172238 H 0.0 **** 0.06
24025 H 77.57426568357516 81.82998349659326 26.33631293346997 H 0.0 **** 0.06
24026 C 7.905345269460383 50.87609513015764 4.203166643765428 C 0.0 **** -0.24
24027 H 7.06785105156812 51.280958176647346 3.636109897892993 H 0.0 **** 0.06
24028 H 8.064823969097343 49.835100425154565 3.9219894163383913 H 0.0 **** 0.06
24029 H 7.684573232810262 50.9343286062375 5.2692279252329115 H 0.0 **** 0.06
24030 H 8.803760488533335 51.453195343378525 3.9858133160929583 H 0.0 **** 0.06
24031 C 100.64205807067914 83.73219881517724 52.74155297158998 C 0.0 **** -0.24
24032 H 100.0056349968579 82.92396391416025 53.101784945568156 H 0.0 **** 0.06
24033 H 100.79851050353821 83.62135232753269 51.668781919087095 H 0.0 **** 0.06
24034 H 101.60356756493226 83.69250067807207 53.25551377838512 H 0.0 **** 0.06
24035 H 100.16228386543736 84.69002180820473 52.943126517077516 H 0.0 **** 0.06
24036 C 86.85743030479165 48.36049758803375 111.04984707104009 C 0.0 **** -0.24
24037 H 87.60833566328466 47.5815249312455 111.18704352966523 H 0.0 **** 0.06
24038 H 86.65291795069419 48.83977881117198 112.00757631225034 H 0.0 **** 0.06
24039 H 85.94066643171203 47.9157923727509 110.66276267187556 H 0.0 **** 0.06
24040 H 87.2287436406304 49.10131504345566 110.342555113907 H 0.0 **** 0.06
24041 C 130.49862626557515 62.860321340419105 16.834789864603046 C 0.0 **** -0.24
24042 H 129.5196777979277 62.57220123810855 17.217750387366003 H 0.0 **** 0.06
24043 H 130.92969487538127 62.02803093326324 16.27763850931681 H 0.0 **** 0.06
24044 H 131.15232370727935 63.117320031051364 17.66871997095152 H 0.0 **** 0.06
24045 H 130.39204353400444 63.72230518871966 16.176887905998242 H 0.0 **** 0.06
24046 C 78.662614253066 97.64070581376683 8.894127549054303 C 0.0 **** -0.24
24047 H 79.07470009001152 97.86706965336282 9.876976819336477 H 0.0 **** 0.06
24048 H 78.09810843206327 96.70863347798581 8.943020086264113 H 0.0 **** 0.06
24049 H 79.47380142097624 97.53618082705967 8.17425678000626 H 0.0 **** 0.06
24050 H 78.00167420234357 98.45041350398077 8.58230573824136 H 0.0 **** 0.06
24051 C 82.77274318606436 136.00218045218426 29.416915631725153 C 0.0 **** -0.24
24052 H 81.95149679026594 136.3078651002569 28.769223357309173 H 0.0 **** 0.06
24053 H 82.7864173551203 136.63234718728552 30.30668189633719 H 0.0 **** 0.06
24054 H 83.71619853637088 136.10744957645562 28.881816156527627 H 0.0 **** 0.06
24055 H 82.63565095091104 134.96122400084363 29.710656118441094 H 0.0 **** 0.06
24056 C 86.08302023368609 53.84604799690604 82.30801174287704 C 0.0 **** -0.24
24057 H 85.57718888792704 53.30035910859738 81.51179611540233 H 0.0 **** 0.06
24058 H 86.42996036385388 53.142660677827905 83.06620431351413 H 0.0 **** 0.06
24059 H 85.38837275262868 54.55488547338774 82.75958167971633 H 0.0 **** 0.06
24060 H 86.93480132875958 54.38509736501021 81.89516947948272 H 0.0 **** 0.06
24061 C 127.23662103200652 60.768526610053456 62.734177724654586 C 0.0 **** -0.24
24062 H 126.76084395546965 61.57844414316877 63.288209203424856 H 0.0 **** 0.06
24063 H 126.47199520572947 60.090365132493844 62.35566695177749 H 0.0 **** 0.06
24064 H 127.91213174989727 60.224881631222345 63.39455675406748 H 0.0 **** 0.06
24065 H 127.80039837287312 61.183983197217614 61.89844987872627 H 0.0 **** 0.06
24066 C 46.44682126002091 29.735068824018768 50.3444930371831 C 0.0 **** -0.24
24067 H 46.50488352667236 29.749985177312375 51.43287869534993 H 0.0 **** 0.06
24068 H 45.471260515968304 29.35853758852398 50.03730170588929 H 0.0 **** 0.06
24069 H 47.22860970870158 29.08699731193272 49.94823655014169 H 0.0 **** 0.06
24070 H 46.58441665643028 30.746191585614717 49.96017367589734 H 0.0 **** 0.06
24071 C 119.17894171915579 112.50530035428983 49.72942282540305 C 0.0 **** -0.24
24072 H 118.15154114693624 112.8446177070881 49.86040697793223 H 0.0 **** 0.06
24073 H 119.26162618375429 111.46705091987178 50.051712259537965 H 0.0 **** 0.06
24074 H 119.84536802737098 113.125952569525 50.32778043680025 H 0.0 **** 0.06
24075 H 119.45511263991547 112.58314410772789 48.67835765782917 H 0.0 **** 0.06
24076 C 108.83824150581825 77.92003781303237 110.16450087572872 C 0.0 **** -0.24
24077 H 108.72639853522182 78.50004967307382 109.24882766955295 H 0.0 **** 0.06
24078 H 109.4357342732165 78.484816136745 110.88154828960455 H 0.0 **** 0.06
24079 H 109.33671758957522 76.97693075621686 109.93895538699553 H 0.0 **** 0.06
24080 H 107.8550196567781 77.7188598438675 110.58963529503228 H 0.0 **** 0.06
24081 C 37.77321034798143 10.11632145503728 124.55081065346872 C 0.0 **** -0.24
24082 H 38.299280218897536 9.491394513514251 125.27351732935813 H 0.0 **** 0.06
24083 H 37.496112910860916 11.060618733853858 125.02105823870613 H 0.0 **** 0.06
24084 H 36.87452010614635 9.600704620621457 124.21237278843785 H 0.0 **** 0.06
24085 H 38.422901177604615 10.31115789234525 123.6980295484774 H 0.0 **** 0.06
24086 C 117.93143164571757 32.31847534413191 114.25380403550417 C 0.0 **** -0.24
24087 H 116.8554611486592 32.482968715306015 114.18256806907803 H 0.0 **** 0.06
24088 H 118.16468547106345 31.85325970061281 115.21211513863386 H 0.0 **** 0.06
24089 H 118.45068344853365 33.272882990530775 114.17745883154342 H 0.0 **** 0.06
24090 H 118.25308017127756 31.663701201535147 113.44379223344356 H 0.0 **** 0.06
24091 C 66.01535691542449 18.65256056955741 111.9230387951257 C 0.0 **** -0.24
24092 H 66.61585759636165 18.42203557641494 112.8023050594785 H 0.0 **** 0.06
24093 H 65.16092484884615 17.976925631163 111.87921697512999 H 0.0 **** 0.06
24094 H 66.62292179346264 18.52815268803306 111.02605958133785 H 0.0 **** 0.06
24095 H 65.66314371588373 19.682237859544557 111.98309371031007 H 0.0 **** 0.06
24096 C 119.19893081570308 11.535542895652043 41.73543690388766 C 0.0 **** -0.24
24097 H 119.98076967216394 11.25628131037638 41.02767908679485 H 0.0 **** 0.06
24098 H 119.63025941737331 11.634827098946062 42.732271601685994 H 0.0 **** 0.06
24099 H 118.42879441515873 10.765023790934265 41.74689298715751 H 0.0 **** 0.06
24100 H 118.75918921002273 12.486090480751159 41.433121373234684 H 0.0 **** 0.06
24101 C 37.454234000433075 12.03778859771839 116.84361968222731 C 0.0 **** -0.24
24102 H 36.511012211080015 12.308853619334187 117.31769189408848 H 0.0 **** 0.06
24103 H 38.1452162330595 11.662360658719056 117.59864716229231 H 0.0 **** 0.06
24104 H 37.8842246027088 12.91525898404661 116.36109108686287 H 0.0 **** 0.06
24105 H 37.27670672581229 11.262719900136876 116.09737060148942 H 0.0 **** 0.06
24106 C 48.126156360049606 49.10926429360234 15.121860318136157 C 0.0 **** -0.24
24107 H 48.208954959404394 49.81339719569817 15.949415320743242 H 0.0 **** 0.06
24108 H 47.26045659751121 48.46487819996537 15.277782048623976 H 0.0 **** 0.06
24109 H 49.028566008104065 48.50000055099926 15.070766449799862 H 0.0 **** 0.06
24110 H 48.00609604962362 49.65946584485863 14.187421481661147 H 0.0 **** 0.06
24111 C 46.90288837895656 109.81832964829394 96.09552112068856 C 0.0 **** -0.24
24112 H 47.35415804281729 108.82991572977053 96.18679388047268 H 0.0 **** 0.06
24113 H 46.314537522580395 109.86584037649328 95.17967068511047 H 0.0 **** 0.06
24114 H 47.6876503690645 110.5737675851436 96.06309920671616 H 0.0 **** 0.06
24115 H 46.25611475036544 110.00210209937012 96.95366600350727 H 0.0 **** 0.06
24116 C 125.18806727217513 40.786716313414736 108.31526976194573 C 0.0 **** -0.24
24117 H 125.39770362535006 40.84403835393528 109.38279764769717 H 0.0 **** 0.06
24118 H 125.93341914381716 40.153635907439465 107.83239926810813 H 0.0 **** 0.06
24119 H 125.22528477333566 41.786468925307545 107.88345776617412 H 0.0 **** 0.06
24120 H 124.19567007618627 40.36132258773401 108.16235443886475 H 0.0 **** 0.06
24121 C 133.00269717024045 111.29916308746004 23.967674617298883 C 0.0 **** -0.24
24122 H 133.84325408915268 111.49925959764286 24.632213192858146 H 0.0 **** 0.06
24123 H 133.3659897971906 111.18948614222472 22.94582800435714 H 0.0 **** 0.06
24124 H 132.29566798184507 112.1268868537793 24.015592450006807 H 0.0 **** 0.06
24125 H 132.50658441884167 110.37924116785365 24.27822074104685 H 0.0 **** 0.06
24126 C 9.012920298151556 9.815555694309325 68.53163590164898 C 0.0 **** -0.24
24127 H 9.796391388764675 10.450155069966911 68.9463704735026 H 0.0 **** 0.06
24128 H 9.089059411321372 9.807376689835849 67.44469065710254 H 0.0 **** 0.06
24129 H 8.03833467367653 10.203828965849368 68.82504129044416 H 0.0 **** 0.06
24130 H 9.12931399878002 8.799834879499286 68.91183173625063 H 0.0 **** 0.06
24131 C 68.24007299288098 90.68562876039013 108.3461730469891 C 0.0 **** -0.24
24132 H 68.72501356200627 90.60056447596718 107.373796697378 H 0.0 **** 0.06
24133 H 68.68319909262812 91.51225300942215 108.90182823435981 H 0.0 **** 0.06
24134 H 68.37609280977233 89.75841531612427 108.9018103810873 H 0.0 **** 0.06
24135 H 67.17492485934798 90.87164094230316 108.20429973120999 H 0.0 **** 0.06
24136 C 95.92561646273113 86.88401826271729 19.52064266559973 C 0.0 **** -0.24
24137 H 94.89279357434586 87.14053681681557 19.758477104342937 H 0.0 **** 0.06
24138 H 96.14086566730057 85.87641528582782 19.878950033323974 H 0.0 **** 0.06
24139 H 96.59685607238735 87.59320582731789 20.004393034785046 H 0.0 **** 0.06
24140 H 96.07037708360353 86.92425829165103 18.441633348738996 H 0.0 **** 0.06
24141 C 50.7369515903402 17.53389867354616 70.84897603277403 C 0.0 **** -0.24
24142 H 51.305446052992124 16.94738001143338 71.57053403767151 H 0.0 **** 0.06
24143 H 49.68985016736849 17.234752987344024 70.88112376292221 H 0.0 **** 0.06
24144 H 51.134564665829885 17.361254775071927 69.84825676855723 H 0.0 **** 0.06
24145 H 50.82079637908896 18.592657010799485 71.09517091517151 H 0.0 **** 0.06
24146 C 96.21660839138754 0.6106760456290488 6.936563847321025 C 0.0 **** -0.24
24147 H 95.89526506897234 -0.015961781739918024 7.768459008326573 H 0.0 **** 0.06
24148 H 97.12148333352974 1.1510326371619044 7.217409404552171 H 0.0 **** 0.06
24149 H 95.42904127793372 1.322821172805618 6.691853029986362 H 0.0 **** 0.06
24150 H 96.42306114429006 -0.015532343760526146 6.068337841216277 H 0.0 **** 0.06
24151 C 31.19779541907222 50.81319495264732 40.642305903369824 C 0.0 **** -0.24
24152 H 30.536749364524105 50.61272490715966 39.79925256726644 H 0.0 **** 0.06
24153 H 32.22438640236375 50.90313265561045 40.28603737871809 H 0.0 **** 0.06
24154 H 31.131492782463496 49.99393009202893 41.35809155763913 H 0.0 **** 0.06
24155 H 30.897640212170877 51.742875638392945 41.12623333443555 H 0.0 **** 0.06
24156 C 126.95229436135025 67.27986855081257 88.16748966882238 C 0.0 **** -0.24
24157 H 127.80620213510446 67.92622630220508 88.36754011221649 H 0.0 **** 0.06
24158 H 126.82511222536016 66.57946404898215 88.99335305456594 H 0.0 **** 0.06
24159 H 127.12401830520656 66.72682184613973 87.24444890226778 H 0.0 **** 0.06
24160 H 126.05299195795192 67.88748389041213 88.06463604696148 H 0.0 **** 0.06
24161 C 82.25191594861448 58.90036304660876 104.9743510876774 C 0.0 **** -0.24
24162 H 82.04860287170135 58.08995759259504 105.67357480290963 H 0.0 **** 0.06
24163 H 82.3127325813912 58.5003632924258 103.961986223677 H 0.0 **** 0.06
24164 H 83.19630555229605 59.37740255771696 105.23489975313834 H 0.0 **** 0.06
24165 H 81.44831942988947 59.63505760436358 105.02636657136065 H 0.0 **** 0.06
24166 C 97.36853939719651 67.86793171490399 5.353340940140743 C 0.0 **** -0.24
24167 H 98.31408832885734 68.04883199223508 4.842536328655864 H 0.0 **** 0.06
24168 H 96.86840202507574 67.01083940671242 4.9012087741936945 H 0.0 **** 0.06
24169 H 96.7323989134517 68.74841264662048 5.264596016227735 H 0.0 **** 0.06
24170 H 97.55902185518471 67.66275889916069 6.407293814520568 H 0.0 **** 0.06
24171 C 46.86886370890062 84.77105126975681 113.26430649541564 C 0.0 **** -0.24
24172 H 46.00204722302925 85.41748277791103 113.4030456933377 H 0.0 **** 0.06
24173 H 47.5237618394612 84.85036843851105 114.13215803721775 H 0.0 **** 0.06
24174 H 47.411043265978606 85.0787959128107 112.36942623075998 H 0.0 **** 0.06
24175 H 46.5371423432249 83.73975473959962 113.15157503715258 H 0.0 **** 0.06
24176 C 37.28837008353088 115.86139275015768 35.10524971939873 C 0.0 **** -0.24
24177 H 37.13597829954341 115.14834078584846 34.29508325555341 H 0.0 **** 0.06
24178 H 38.23047633710482 116.38815829446654 34.953467212823796 H 0.0 **** 0.06
24179 H 37.31749444507861 115.33060062168127 36.05632516584501 H 0.0 **** 0.06
24180 H 36.468067372419455 116.57965874691567 35.1149202247844 H 0.0 **** 0.06
24181 C 66.27817806041138 64.89874554750256 75.25569407945136 C 0.0 **** -0.24
24182 H 66.15207104140542 64.32901475513961 74.33494225943093 H 0.0 **** 0.06
24183 H 67.24312091413948 65.40551727098651 75.24100485623762 H 0.0 **** 0.06
24184 H 66.23578288269762 64.222568984019 76.10933155960254 H 0.0 **** 0.06
24185 H 65.48098072053992 65.63743751991787 75.3379778958456 H 0.0 **** 0.06
24186 C 104.14464640610282 39.88929266295447 70.76051478735639 C 0.0 **** -0.24
24187 H 104.00500754685936 38.98936165898851 70.16149789003384 H 0.0 **** 0.06
24188 H 104.71041977472669 39.643216523411205 71.65879985682625 H 0.0 **** 0.06
24189 H 103.17150858887942 40.29126855346881 71.04185837979026 H 0.0 **** 0.06
24190 H 104.69042616887734 40.63156325320076 70.17737250623463 H 0.0 **** 0.06
24191 C 111.37557436562935 2.82390320505775 64.66217320212598 C 0.0 **** -0.24
24192 H 111.35598825755298 1.8332710861242525 65.11707811268275 H 0.0 **** 0.06
24193 H 111.51517189679282 3.5770624917744804 65.43809053764869 H 0.0 **** 0.06
24194 H 110.4328818664942 3.0050167626418443 64.14590022311785 H 0.0 **** 0.06
24195 H 112.19704218505586 2.880143202189288 63.94834078506756 H 0.0 **** 0.06
24196 C 97.72183827264293 113.50610561640585 119.57412546264425 C 0.0 **** -0.24
24197 H 96.99981381978593 112.83713845827953 120.04358019385649 H 0.0 **** 0.06
24198 H 98.72183593133677 113.08280114785185 119.66671085680707 H 0.0 **** 0.06
24199 H 97.69121779382975 114.47781376392834 120.06809588000593 H 0.0 **** 0.06
24200 H 97.47366698213094 113.62675782808773 118.51963880290654 H 0.0 **** 0.06
24201 C 22.476712472439175 76.33968683386509 73.82382735435573 C 0.0 **** -0.24
24202 H 21.398279116440477 76.23411792456763 73.93884792221516 H 0.0 **** 0.06
24203 H 22.973018292485335 76.0290786832301 74.74366114811733 H 0.0 **** 0.06
24204 H 22.720254081058158 77.3809945162911 73.6140016247981 H 0.0 **** 0.06
24205 H 22.816398750097846 75.71367057480407 72.99886921856714 H 0.0 **** 0.06
24206 C 99.77319860733776 100.68310103495378 48.31108564694529 C 0.0 **** -0.24
24207 H 98.86012328546227 101.27541744484773 48.37571395125747 H 0.0 **** 0.06
24208 H 100.28372851306023 100.90210888012896 47.37281123031835 H 0.0 **** 0.06
24209 H 99.52279164525515 99.62280542947383 48.350413265122455 H 0.0 **** 0.06
24210 H 100.42696249927079 100.93323789250474 49.147131355707444 H 0.0 **** 0.06
24211 C 69.92199641502134 36.46898843679612 120.42236136994417 C 0.0 **** -0.24
24212 H 70.64096197363546 36.97071995924992 119.7745781697342 H 0.0 **** 0.06
24213 H 69.4922090001379 37.190632414671455 121.11726914951291 H 0.0 **** 0.06
24214 H 70.4270936706107 35.68208422230617 120.98265556880611 H 0.0 **** 0.06
24215 H 69.12936529521704 36.031974091413936 119.81498221806623 H 0.0 **** 0.06
24216 C 88.3431831469099 63.090220522188076 66.58106677738104 C 0.0 **** -0.24
24217 H 87.41963825563208 63.571914026588445 66.90205004554038 H 0.0 **** 0.06
24218 H 88.59784304160789 62.29291472663482 67.27824810178016 H 0.0 **** 0.06
24219 H 89.14745754970657 63.82592086065071 66.55946166387135 H 0.0 **** 0.06
24220 H 88.2059410882267 62.67160066588269 65.58386513628632 H 0.0 **** 0.06
24221 C 24.601326886241665 57.51475393486325 121.66080007209365 C 0.0 **** -0.24
24222 H 25.10376671586301 57.09082387546549 122.5305584346329 H 0.0 **** 0.06
24223 H 24.91253986194568 58.55185275572359 121.53087456555926 H 0.0 **** 0.06
24224 H 23.521922663401384 57.475553734171086 121.80991065540013 H 0.0 **** 0.06
24225 H 24.865868807447406 56.941644998163056 120.77275011147543 H 0.0 **** 0.06
24226 C 74.2488390590994 35.00688767205375 102.40193877170228 C 0.0 **** -0.24
24227 H 73.88083827169717 35.5960414212252 103.2414036617562 H 0.0 **** 0.06
24228 H 74.41339918262184 33.97802166935591 102.72511034838524 H 0.0 **** 0.06
24229 H 75.18708403974745 35.43062160464188 102.04291369922775 H 0.0 **** 0.06
24230 H 73.51252351278202 35.02141409414343 101.5975473731344 H 0.0 **** 0.06
24231 C 108.69116205525937 107.39933339937 122.66486770818173 C 0.0 **** -0.24
24232 H 107.6384996962392 107.13386988971726 122.5685135010264 H 0.0 **** 0.06
24233 H 108.9904231542914 107.31981889801543 123.71078566878906 H 0.0 **** 0.06
24234 H 108.83959248672446 108.42279629316471 122.32133438077736 H 0.0 **** 0.06
24235 H 109.29384365294477 106.72195705257585 122.06158158878159 H 0.0 **** 0.06
24236 C 61.460929223442236 118.97630662809087 94.29898159984181 C 0.0 **** -0.24
24237 H 60.68207594494075 119.6461141050727 94.66377001318895 H 0.0 **** 0.06
24238 H 62.2464123388836 119.56046427956218 93.81931068665047 H 0.0 **** 0.06
24239 H 61.032153675427026 118.28129285832891 93.57677354915569 H 0.0 **** 0.06
24240 H 61.88040969268103 118.41762595648007 95.13516463440581 H 0.0 **** 0.06
24241 C 113.90702858175823 98.21739780893768 134.8975956265718 C 0.0 **** -0.24
24242 H 113.68854874823913 98.48262508330248 133.86303817028184 H 0.0 **** 0.06
24243 H 113.58863465957177 99.02657374676588 135.55487233858096 H 0.0 **** 0.06
24244 H 114.97848300334672 98.05539036333664 135.01209033358344 H 0.0 **** 0.06
24245 H 113.37133425969387 97.30422157823301 135.15834428224693 H 0.0 **** 0.06
24246 C 5.7260764345435895 119.61595911550523 64.37478301890614 C 0.0 **** -0.24
24247 H 6.137688561824675 118.64146914978645 64.6396034777329 H 0.0 **** 0.06
24248 H 5.835809648090176 120.29723144825182 65.21947690753758 H 0.0 **** 0.06
24249 H 4.669755772582146 119.5082842975809 64.12798580569665 H 0.0 **** 0.06
24250 H 6.262586123656575 120.0151640844539 63.5140148681608 H 0.0 **** 0.06
24251 C 136.52587909055904 75.84087641107924 75.49215360235706 C 0.0 **** -0.24
24252 H 136.72800652372004 76.81207833354063 75.04155140151926 H 0.0 **** 0.06
24253 H 136.24082440300953 75.13233662150586 74.71406538015987 H 0.0 **** 0.06
24254 H 135.7140883547713 75.93575841442228 76.2127909817309 H 0.0 **** 0.06
24255 H 137.42188218374633 75.48179853113928 75.99920846155646 H 0.0 **** 0.06
24256 C 102.79183017337746 25.62449213160764 10.545707448895406 C 0.0 **** -0.24
24257 H 102.45339578635948 24.744252033809488 11.091952431619756 H 0.0 **** 0.06
24258 H 103.33222851071642 25.311840531967917 9.651210517830531 H 0.0 **** 0.06
24259 H 103.45137414627143 26.21502820270726 11.181296891838954 H 0.0 **** 0.06
24260 H 101.92989459482644 26.22632818417796 10.257630224368906 H 0.0 **** 0.06
24261 C 97.29690893538108 91.04090295276649 3.8185448827397863 C 0.0 **** -0.24
24262 H 97.94168157857956 90.65081408122444 4.606643870417258 H 0.0 **** 0.06
24263 H 96.92580579462361 90.21483847927584 3.21168491600514 H 0.0 **** 0.06
24264 H 97.86566700287341 91.72656974073763 3.1901123889726932 H 0.0 **** 0.06
24265 H 96.45653186918449 91.56962094615628 4.266555660731626 H 0.0 **** 0.06
24266 C 95.5568970768535 10.933570803518137 93.13190142991387 C 0.0 **** -0.24
24267 H 95.84499046061495 9.951501638254058 92.75706358208306 H 0.0 **** 0.06
24268 H 95.76938348172047 10.989868461204708 94.20018473989317 H 0.0 **** 0.06
24269 H 94.4910430029086 11.088176872311067 92.96485321280903 H 0.0 **** 0.06
24270 H 96.1236217691197 11.702684406275125 92.60680289937659 H 0.0 **** 0.06
24271 C 49.369854241897144 71.77481524468507 36.11054727129448 C 0.0 **** -0.24
24272 H 50.41182072604289 72.04470299478501 36.28309442296154 H 0.0 **** 0.06
24273 H 48.739765362614435 72.65561806899954 36.244564341507896 H 0.0 **** 0.06
24274 H 49.07184190519473 71.00389913948112 36.8210274318979 H 0.0 **** 0.06
24275 H 49.25558752421344 71.39762304445618 35.095545248964356 H 0.0 **** 0.06
24276 C 79.3738054246744 129.19877016475584 88.54147314307312 C 0.0 **** -0.24
24277 H 79.580355421125 129.7160180251841 89.47804763462096 H 0.0 **** 0.06
24278 H 78.31757961348126 128.93349354309117 88.49790249412968 H 0.0 **** 0.06
24279 H 79.97870198344695 128.2934354100192 88.48517727645833 H 0.0 **** 0.06
24280 H 79.61981699406512 129.85251692810263 87.70418670552334 H 0.0 **** 0.06
24281 C 61.98080962008646 47.65706532818912 118.15419261784567 C 0.0 **** -0.24
24282 H 62.31154424964325 48.664287855322286 118.40551193354662 H 0.0 **** 0.06
24283 H 62.297409675230426 47.4139184442335 117.13885121693576 H 0.0 **** 0.06
24284 H 60.89477478936544 47.60446821743403 118.2199336306634 H 0.0 **** 0.06
24285 H 62.42245275190152 46.945711574765355 118.85190475972186 H 0.0 **** 0.06
24286 C 82.24083963211905 96.14234843017945 124.80473897695788 C 0.0 **** -0.24
24287 H 83.21129228129021 96.19536942270788 125.2991270167955 H 0.0 **** 0.06
24288 H 81.89361396170074 95.10952916659147 124.7954260624507 H 0.0 **** 0.06
24289 H 82.33575924122684 96.5039243320183 123.78071055460947 H 0.0 **** 0.06
24290 H 81.52522679808891 96.76246094178126 125.34360329775151 H 0.0 **** 0.06
24291 C 62.07228915094166 54.049739069219896 13.458238262927978 C 0.0 **** -0.24
24292 H 62.08204743868946 55.13762284284503 13.527113100868547 H 0.0 **** 0.06
24293 H 62.245924502354185 53.62157558298733 14.445512722958313 H 0.0 **** 0.06
24294 H 62.8577693394559 53.72270130575106 12.776912908805798 H 0.0 **** 0.06
24295 H 61.104205198587266 53.718187101178216 13.083101216748702 H 0.0 **** 0.06
24296 C 0.9302325431413081 99.20857244870778 130.5490182574622 C 0.0 **** -0.24
24297 H 1.2741775023669106 98.50336113574848 129.79178845523452 H 0.0 **** 0.06
24298 H 0.11103609001360226 99.80457306417779 130.14447458212726 H 0.0 **** 0.06
24299 H 1.7515089107421318 99.86569001922301 130.8338333846426 H 0.0 **** 0.06
24300 H 0.5825175587885028 98.65975830280385 131.42445323658956 H 0.0 **** 0.06
24301 C 1.0933940308935348 40.6939708670303 119.62857481529558 C 0.0 **** -0.24
24302 H 0.8563539948692949 41.25780801216409 118.72680559914656 H 0.0 **** 0.06
24303 H 0.18275708734478258 40.24220206513237 120.02363231721596 H 0.0 **** 0.06
24304 H 1.5196507831727217 41.3643401924428 120.3741364540721 H 0.0 **** 0.06
24305 H 1.8125892982932896 39.9109523428242 119.38888083010417 H 0.0 **** 0.06
24306 C 112.27795277148968 87.12081177049649 6.256841624684824 C 0.0 **** -0.24
24307 H 112.56049522549108 88.17278071960669 6.286642951814031 H 0.0 **** 0.06
24308 H 111.86090810246267 86.88420622381435 5.277293421495585 H 0.0 **** 0.06
24309 H 111.5308429124533 86.92494651947032 7.026812262789747 H 0.0 **** 0.06
24310 H 113.15691361531975 86.50264942709646 6.437050311893302 H 0.0 **** 0.06
24311 C 42.94724900760218 100.07427933587826 54.556747702499194 C 0.0 **** -0.24
24312 H 43.10547250731878 100.96519293569258 55.16414734426519 H 0.0 **** 0.06
24313 H 41.88412355143947 99.83548542093894 54.53010588823264 H 0.0 **** 0.06
24314 H 43.49741624043202 99.23754893904095 54.98955298710163 H 0.0 **** 0.06
24315 H 43.30505148199603 100.25769001334208 53.543571025619514 H 0.0 **** 0.06
24316 C 24.0925553179207 132.59584942414287 21.19380101024103 C 0.0 **** -0.24
24317 H 24.24020567283688 133.58510664007474 20.75988785824387 H 0.0 **** 0.06
24318 H 23.724120696512216 132.69884921143137 22.215074770491697 H 0.0 **** 0.06
24319 H 25.039876014144625 132.05667125949336 21.20131572880871 H 0.0 **** 0.06
24320 H 23.365126561638732 132.04321957303446 20.59897269333858 H 0.0 **** 0.06
24321 C 28.777421414752496 22.335490014985908 68.61547686174703 C 0.0 **** -0.24
24322 H 29.424943519230823 21.8872646080832 69.36934037004448 H 0.0 **** 0.06
24323 H 29.042097940437344 23.38565686737678 68.48942126768691 H 0.0 **** 0.06
24324 H 27.738624642075962 22.258171986267087 68.93650528871109 H 0.0 **** 0.06
24325 H 28.904625499942824 21.81107671676355 67.66878269593559 H 0.0 **** 0.06
24326 C 17.596401401423634 123.72073891506656 49.64280475810648 C 0.0 **** -0.24
24327 H 18.665132065720286 123.64376387249948 49.44516460848382 H 0.0 **** 0.06
24328 H 17.4058569248474 124.58548671917957 50.278969148775616 H 0.0 **** 0.06
24329 H 17.254033154129047 122.81587581935747 50.146350079061335 H 0.0 **** 0.06
24330 H 17.060330403556065 123.8369095652278 48.70103551196286 H 0.0 **** 0.06
24331 C 63.32041846453566 71.41589073293126 115.23419111135428 C 0.0 **** -0.24
24332 H 62.67977627764205 71.89305560179261 114.49251912049746 H 0.0 **** 0.06
24333 H 62.70180979104015 70.9237911458862 115.9845652566818 H 0.0 **** 0.06
24334 H 63.94323138645882 72.17044216969316 115.71419239699603 H 0.0 **** 0.06
24335 H 63.95468141315814 70.67776759968403 114.74405972195825 H 0.0 **** 0.06
24336 C 22.48706749300061 54.69652583586411 120.20148547677758 C 0.0 **** -0.24
24337 H 23.271002204561114 55.43924415941375 120.35073003515532 H 0.0 **** 0.06
24338 H 21.567302845884058 55.038173493546424 120.67449483837879 H 0.0 **** 0.06
24339 H 22.795321876069693 53.75020654464316 120.64636648649315 H 0.0 **** 0.06
24340 H 22.317892883369097 54.556908707856834 119.13336417641489 H 0.0 **** 0.06
24341 C 131.1085563121672 1.6267452778165534 46.02432470191502 C 0.0 **** -0.24
24342 H 130.26543490896938 1.2837208872509223 45.42336488500371 H 0.0 **** 0.06
24343 H 130.80697068696418 1.6919534556376163 47.06957206481087 H 0.0 **** 0.06
24344 H 131.42583189104766 2.6095776760280955 45.675585899383236 H 0.0 **** 0.06
24345 H 131.93354477959895 0.9224654244440273 45.926228360364746 H 0.0 **** 0.06
24346 C 96.25620831379078 65.92903176849484 59.933380404767206 C 0.0 **** -0.24
24347 H 96.86936229710577 65.58239305124789 59.10140152060646 H 0.0 **** 0.06
24348 H 96.44908234591605 66.98777717991919 60.11086531897209 H 0.0 **** 0.06
24349 H 96.50438915174624 65.35921455877019 60.82884435312671 H 0.0 **** 0.06
24350 H 95.20314081965344 65.7867989599788 59.6932436007596 H 0.0 **** 0.06
24351 C 86.31667112990098 70.4907131870866 6.00560848916146 C 0.0 **** -0.24
24352 H 86.9059096593777 71.0505715034526 6.731210059080212 H 0.0 **** 0.06
24353 H 86.02977649939805 71.14864699317116 5.18578436026408 H 0.0 **** 0.06
24354 H 85.4206134767089 70.1005784011099 6.48894338567581 H 0.0 **** 0.06
24355 H 86.90974106578253 69.66283551432561 5.617228951882566 H 0.0 **** 0.06
24356 C 35.69555672591416 92.10897675416663 31.024408725189694 C 0.0 **** -0.24
24357 H 35.26826433227747 92.85731675990957 31.690533657247656 H 0.0 **** 0.06
24358 H 35.1809744388968 91.15794776985638 31.16879395722239 H 0.0 **** 0.06
24359 H 36.755661150616106 91.9855956758953 31.24832797454244 H 0.0 **** 0.06
24360 H 35.578097170510716 92.43277414543275 29.99047132671197 H 0.0 **** 0.06
24361 C 98.60908964461491 14.27270233832536 108.8611836813156 C 0.0 **** -0.24
24362 H 99.12608393028134 13.319840092254651 108.97895700888307 H 0.0 **** 0.06
24363 H 98.7081877507557 14.61403100767393 107.83043861234182 H 0.0 **** 0.06
24364 H 99.05004157084431 15.00952626933352 109.53210612592744 H 0.0 **** 0.06
24365 H 97.55413034163554 14.146164815805605 109.10354532677206 H 0.0 **** 0.06
24366 C 19.940688488069398 68.53552074565033 97.05004101208542 C 0.0 **** -0.24
24367 H 20.73332427615439 69.28292841728296 97.0264123990857 H 0.0 **** 0.06
24368 H 19.025981096857564 68.96309995309684 96.63971253208032 H 0.0 **** 0.06
24369 H 19.76684333376781 68.2228535938383 98.07945499906596 H 0.0 **** 0.06
24370 H 20.238318172177642 67.67330275199919 96.45283603042914 H 0.0 **** 0.06
24371 C 116.73506784456185 19.48799846939295 104.39371632357216 C 0.0 **** -0.24
24372 H 116.63679466042569 19.55172644935749 105.47785525969687 H 0.0 **** 0.06
24373 H 117.5699096089021 20.108993893412475 104.06800939928996 H 0.0 **** 0.06
24374 H 115.81580908538723 19.838623452186937 103.92522247383238 H 0.0 **** 0.06
24375 H 116.91832645703792 18.452552021759487 104.10593860104296 H 0.0 **** 0.06
24376 C 66.21943154626058 115.41119248679826 66.63021576853392 C 0.0 **** -0.24
24377 H 66.2030418843222 114.45016728861032 66.11570820755736 H 0.0 **** 0.06
24378 H 66.18916992055654 115.24763118343697 67.70762052668799 H 0.0 **** 0.06
24379 H 65.35303663507784 116.00012422138252 66.3276197087241 H 0.0 **** 0.06
24380 H 67.13213235448802 115.94735483920363 66.36912525881925 H 0.0 **** 0.06
24381 C 24.329113213671775 104.73572099898031 130.06628888093326 C 0.0 **** -0.24
24382 H 24.748890601657187 104.51754921520894 131.04921419089686 H 0.0 **** 0.06
24383 H 25.10476463206951 104.62940446009216 129.30865395625653 H 0.0 **** 0.06
24384 H 23.94595106525687 105.755641366018 130.0540319238621 H 0.0 **** 0.06
24385 H 23.517147649565615 104.0397008713709 129.85618186993293 H 0.0 **** 0.06
24386 C 57.502890501555896 36.46376524948349 56.678507767831775 C 0.0 **** -0.24
24387 H 58.447214836144255 36.20265917801794 56.20162287894496 H 0.0 **** 0.06
24388 H 56.825853802520555 36.88679476934141 55.935662936163226 H 0.0 **** 0.06
24389 H 57.683832931425684 37.19709520186905 57.46445374911322 H 0.0 **** 0.06
24390 H 57.05524479060736 35.56912649522019 57.111761614798695 H 0.0 **** 0.06
24391 C 99.86637372182736 7.983339484012447 70.54748888216318 C 0.0 **** -0.24
24392 H 100.38204244135619 7.222037712588673 69.96322491035835 H 0.0 **** 0.06
24393 H 100.56626614902552 8.437739647679223 71.2502180182347 H 0.0 **** 0.06
24394 H 99.04501248603557 7.524490363006606 71.09823772221142 H 0.0 **** 0.06
24395 H 99.47256275084908 8.749876155534395 69.87938443288613 H 0.0 **** 0.06
24396 C 116.04803724007056 121.9553862223355 64.29720774691795 C 0.0 **** -0.24
24397 H 115.00549012472354 122.15016604899918 64.54797532038687 H 0.0 **** 0.06
24398 H 116.1460304771945 120.93997493373662 63.91551910279952 H 0.0 **** 0.06
24399 H 116.66280908463855 122.07038522252041 65.19030903076921 H 0.0 **** 0.06
24400 H 116.37703083742355 122.66406475890079 63.537052489337725 H 0.0 **** 0.06
24401 C 65.11741557558784 71.90468316572336 61.01599073836633 C 0.0 **** -0.24
24402 H 66.06639369760308 71.79020789003175 60.49282349645988 H 0.0 **** 0.06
24403 H 64.98730267209288 72.94691684785403 61.309910308993324 H 0.0 **** 0.06
24404 H 65.11446245129414 71.2722939308295 61.90411360350983 H 0.0 **** 0.06
24405 H 64.30166256233599 71.60820068539506 60.35625803095152 H 0.0 **** 0.06
24406 C 68.58751608767875 28.715300194830043 119.72566039678894 C 0.0 **** -0.24
24407 H 67.63238361723575 28.509995038903256 120.2099876212483 H 0.0 **** 0.06
24408 H 68.47635970281067 28.61148053464146 118.64494862404747 H 0.0 **** 0.06
24409 H 69.33625748015584 28.008318465958865 120.0828875256055 H 0.0 **** 0.06
24410 H 68.90340064373027 29.731111475035142 119.96233830483864 H 0.0 **** 0.06
24411 C 134.2549829902155 79.34004129537891 121.0468887316315 C 0.0 **** -0.24
24412 H 134.425805035883 78.91291981251794 120.05843733941435 H 0.0 **** 0.06
24413 H 133.64077046395667 80.23604012757659 120.95416789604747 H 0.0 **** 0.06
24414 H 135.21136183946376 79.60000394734556 121.5004733130171 H 0.0 **** 0.06
24415 H 133.74199462155826 78.61120129407561 121.67447637804713 H 0.0 **** 0.06
24416 C 32.44278823484734 94.77744752380254 43.827004432195224 C 0.0 **** -0.24
24417 H 33.31522098792439 95.00327185154171 43.213289875042676 H 0.0 **** 0.06
24418 H 31.536053110233638 95.0096557572829 43.26724120260809 H 0.0 **** 0.06
24419 H 32.47377863584936 95.37704349523025 44.736236132644024 H 0.0 **** 0.06
24420 H 32.44756497069335 93.71881183600706 44.08795798907187 H 0.0 **** 0.06
24421 C 126.92228535456911 24.354594069334112 9.611993276185448 C 0.0 **** -0.24
24422 H 127.3190107831328 23.702600760260026 8.833216182417633 H 0.0 **** 0.06
24423 H 127.71418089604362 25.00974263620379 9.974542380035661 H 0.0 **** 0.06
24424 H 126.54583919431877 23.747696972261274 10.435270417132227 H 0.0 **** 0.06
24425 H 126.11008295643666 24.95571707242533 9.203480788888662 H 0.0 **** 0.06
24426 C 90.33122281881722 104.23841250993631 78.05401926724429 C 0.0 **** -0.24
24427 H 89.60466004861973 104.97740403436215 78.3944178743223 H 0.0 **** 0.06
24428 H 90.90374658073745 103.87365562609872 78.9075051040615 H 0.0 **** 0.06
24429 H 91.00695650894286 104.6985316247825 77.33255168220407 H 0.0 **** 0.06
24430 H 89.8085023841603 103.40600352456097 77.58338175415795 H 0.0 **** 0.06
24431 C 129.74177151250854 99.65298220079893 129.19285360938744 C 0.0 **** -0.24
24432 H 129.1156271470778 99.50732689676374 128.3118167812262 H 0.0 **** 0.06
24433 H 130.77914662949158 99.78150938402544 128.88342396297173 H 0.0 **** 0.06
24434 H 129.66096934800424 98.78267928169382 129.84428657692106 H 0.0 **** 0.06
24435 H 129.40950815468696 100.54092291753489 129.73034629722562 H 0.0 **** 0.06
24436 C 0.027519711226432264 108.89503658374991 60.75411703476152 C 0.0 **** -0.24
24437 H 0.7974267365216008 109.370884874497 60.14613950891493 H 0.0 **** 0.06
24438 H 0.4964729960891532 108.36701040380257 61.58418945050492 H 0.0 **** 0.06
24439 H -0.5318503912644132 108.18684616974448 60.14232825082878 H 0.0 **** 0.06
24440 H -0.6501746191653126 109.65505783955803 61.142181615753415 H 0.0 **** 0.06
24441 C 131.71411424535228 67.26116375888205 107.72858644932147 C 0.0 **** -0.24
24442 H 132.2929978104871 66.35429956910968 107.90408639447747 H 0.0 **** 0.06
24443 H 130.64997928059026 67.0227480221242 107.75545391248885 H 0.0 **** 0.06
24444 H 131.9700623748198 67.67290421818919 106.75314535015985 H 0.0 **** 0.06
24445 H 131.94185683001695 67.99302141828423 108.50405519611971 H 0.0 **** 0.06
24446 C 17.8017663379879 71.61888917390681 10.493077770302005 C 0.0 **** -0.24
24447 H 17.97869891642378 72.40787160536323 11.224694262610832 H 0.0 **** 0.06
24448 H 17.552022591054936 72.06619073279325 9.5310182951102 H 0.0 **** 0.06
24449 H 16.97723876246009 70.99098274209015 10.828114740300112 H 0.0 **** 0.06
24450 H 18.702121496796593 71.01230677871519 10.389779653282968 H 0.0 **** 0.06
24451 C 127.23521453977393 62.638710507987696 130.98820721081879 C 0.0 **** -0.24
24452 H 126.37973348072964 62.32252424770306 131.58528549592438 H 0.0 **** 0.06
24453 H 127.1923790536841 62.160963203186384 130.00948217789892 H 0.0 **** 0.06
24454 H 128.15699867688303 62.35081850262242 131.49341236286654 H 0.0 **** 0.06
24455 H 127.21148726105326 63.721494857008395 130.86476436088392 H 0.0 **** 0.06
24456 C 8.09708864538618 46.354445429577225 9.915527635418869 C 0.0 **** -0.24
24457 H 7.801664106156494 47.09069265615486 10.662964201250816 H 0.0 **** 0.06
24458 H 8.727585808643653 46.83200539977034 9.164788056927648 H 0.0 **** 0.06
24459 H 7.206760422203132 45.946082280098835 9.436867760131804 H 0.0 **** 0.06
24460 H 8.652808476909485 45.54904618338708 10.39837512921872 H 0.0 **** 0.06
24461 C 105.4207149030417 107.10933071292254 36.80833996876652 C 0.0 **** -0.24
24462 H 105.44861764044987 106.06419821416142 36.50064443236677 H 0.0 **** 0.06
24463 H 105.90667750951366 107.72468803215024 36.04943753784062 H 0.0 **** 0.06
24464 H 105.94443516448257 107.22297160674226 37.75803462700219 H 0.0 **** 0.06
24465 H 104.38480842668656 107.42724847674015 36.92524641610666 H 0.0 **** 0.06
24466 C 84.70348176553512 91.86403812692069 58.732467834806926 C 0.0 **** -0.24
24467 H 84.08805157709213 91.02822451974976 59.067575922068826 H 0.0 **** 0.06
24468 H 85.20424300705554 92.31230100350166 59.58991496401178 H 0.0 **** 0.06
24469 H 84.07205084899192 92.6083126577733 58.248859099160285 H 0.0 **** 0.06
24470 H 85.44878041215881 91.50333967642092 58.02277235802232 H 0.0 **** 0.06
24471 C 100.87234746635338 3.526353135378713 0.4566259714962939 C 0.0 **** -0.24
24472 H 99.99159961911076 3.9493458278524542 0.9398924377597382 H 0.0 **** 0.06
24473 H 101.67209908785884 4.266958032019744 0.44809391434665713 H 0.0 **** 0.06
24474 H 100.62490721038316 3.246373892523849 -0.567085893193422 H 0.0 **** 0.06
24475 H 101.19881189178055 2.6434980991584496 1.0063304645839537 H 0.0 **** 0.06
24476 C 131.61488256508852 57.05017339656304 133.50506953888794 C 0.0 **** -0.24
24477 H 132.17027491582428 56.98267637398028 132.56924018342676 H 0.0 **** 0.06
24478 H 132.2939068009856 56.88758586031001 134.3431169851163 H 0.0 **** 0.06
24479 H 130.83267292849655 56.291206526583395 133.51857638204618 H 0.0 **** 0.06
24480 H 131.16474294510638 58.038594003207535 133.5887715067605 H 0.0 **** 0.06
24481 C 86.80045388489765 119.60483114592063 87.04237819787211 C 0.0 **** -0.24
24482 H 86.80095583747553 119.54344163086182 88.13035572877371 H 0.0 **** 0.06
24483 H 85.95603914591914 119.04047536571227 86.64681485372783 H 0.0 **** 0.06
24484 H 87.73038138019848 119.18881837956388 86.65517634153164 H 0.0 **** 0.06
24485 H 86.71477012057557 120.64856464107777 86.73857597955055 H 0.0 **** 0.06
24486 C 111.34051484028177 77.05554286232217 72.57700072298081 C 0.0 **** -0.24
24487 H 110.99209606235118 78.04076547948011 72.26519009698441 H 0.0 **** 0.06
24488 H 111.63554649393467 76.48039776727165 71.69890303970163 H 0.0 **** 0.06
24489 H 110.53790464700359 76.53533177838773 73.09983757168493 H 0.0 **** 0.06
24490 H 112.19552868512508 77.16846885707213 73.2435868827045 H 0.0 **** 0.06
24491 C 113.58235938221122 87.95436954382302 9.622007725757463 C 0.0 **** -0.24
24492 H 112.75065075579366 88.19728716378684 8.961349863117896 H 0.0 **** 0.06
24493 H 113.31322582794678 88.19904888759781 10.650359946371985 H 0.0 **** 0.06
24494 H 114.45973408331852 88.53034187599226 9.328445892324318 H 0.0 **** 0.06
24495 H 113.80561727889233 86.88955608198869 9.548514121282139 H 0.0 **** 0.06
24496 C 118.44083839231686 81.23264386471652 2.957548499873269 C 0.0 **** -0.24
24497 H 119.3244797961114 80.61065100616057 2.8192670630347436 H 0.0 **** 0.06
24498 H 118.5316335516626 82.13394057485255 2.3512098594127906 H 0.0 **** 0.06
24499 H 118.35201463397615 81.50915652635106 4.00850006122883 H 0.0 **** 0.06
24500 H 117.55407092135525 80.67642252956603 2.6524429865724244 H 0.0 **** 0.06
24501 C 124.07566474876664 68.59321248720659 92.87105559669463 C 0.0 **** -0.24
24502 H 124.72264440169094 68.07295492903489 92.16470761784802 H 0.0 **** 0.06
24503 H 124.66157257149912 68.90933261999294 93.73471189060601 H 0.0 **** 0.06
24504 H 123.28000516597464 67.92388322519821 93.19604046367623 H 0.0 **** 0.06
24505 H 123.64092830451915 69.46792466760411 92.38764803227113 H 0.0 **** 0.06
24506 C 82.99946368418486 69.5370690754609 87.10465770394097 C 0.0 **** -0.24
24507 H 81.92531211238092 69.55084125478179 87.2902077091612 H 0.0 **** 0.06
24508 H 83.50904683472105 70.118886414903 87.8730773052495 H 0.0 **** 0.06
24509 H 83.20398382671802 69.96885025357072 86.12488804098041 H 0.0 **** 0.06
24510 H 83.35938569511207 68.5075553280721 87.12983196275445 H 0.0 **** 0.06
24511 C 25.43399615667201 44.718363915639294 78.64712975295339 C 0.0 **** -0.24
24512 H 26.39501306743324 45.17552652009922 78.88673984965766 H 0.0 **** 0.06
24513 H 25.094360484148154 44.1238217163939 79.49503967172927 H 0.0 **** 0.06
24514 H 25.54507825749957 44.07665301130914 77.77361106360752 H 0.0 **** 0.06
24515 H 24.704271953903287 45.49926742617606 78.43358737316706 H 0.0 **** 0.06
24516 C 120.99894882794928 47.66282119756255 21.880487295174788 C 0.0 **** -0.24
24517 H 120.70027692134096 47.12497201720811 22.780528091168208 H 0.0 **** 0.06
24518 H 121.88369971817204 48.26424356255177 22.093963649719683 H 0.0 **** 0.06
24519 H 120.18579197687436 48.31361564581698 21.559554954299443 H 0.0 **** 0.06
24520 H 121.22705614346293 46.948953943221625 21.088733118226912 H 0.0 **** 0.06
24521 C 122.15205524165333 90.25772379160014 96.69342106037175 C 0.0 **** -0.24
24522 H 122.7199536767023 90.19676262430437 95.76497118452292 H 0.0 **** 0.06
24523 H 122.36308426247115 89.38151829164231 97.30686605251611 H 0.0 **** 0.06
24524 H 121.08632843129966 90.29338664221821 96.4652048555082 H 0.0 **** 0.06
24525 H 122.43744824803592 91.15973460750922 97.23531349468371 H 0.0 **** 0.06
24526 C 71.90650797644173 2.5723080466714237 118.94731834161692 C 0.0 **** -0.24
24527 H 71.07016783384424 3.2572104236041355 119.08575946329543 H 0.0 **** 0.06
24528 H 71.55930730608264 1.5457257235810857 119.07297098925237 H 0.0 **** 0.06
24529 H 72.67834096097675 2.7885829634279844 119.68523772497004 H 0.0 **** 0.06
24530 H 72.31583566249617 2.697164100607779 117.94548910830767 H 0.0 **** 0.06
24531 C 111.58734560289884 125.67541426345474 50.64060199370455 C 0.0 **** -0.24
24532 H 110.7838160547588 125.56834046760127 49.91248971467702 H 0.0 **** 0.06
24533 H 111.94494488388452 124.68921752625482 50.93502306504938 H 0.0 **** 0.06
24534 H 111.21355595972952 126.20393444402447 51.51818323447692 H 0.0 **** 0.06
24535 H 112.40606396703134 126.24216032128277 50.196831531257715 H 0.0 **** 0.06
24536 C 123.9527649611378 120.81672082116012 57.18748570637325 C 0.0 **** -0.24
24537 H 124.02023604418395 120.31691346351579 56.22150833043165 H 0.0 **** 0.06
24538 H 124.04813738745321 120.07997074520756 57.98479145959743 H 0.0 **** 0.06
24539 H 122.9885338949353 121.31956443503583 57.268915828485746 H 0.0 **** 0.06
24540 H 124.75329949275095 121.55113960040455 57.2725418790599 H 0.0 **** 0.06
24541 C 15.11935518552147 82.53107663642601 62.42563033181774 C 0.0 **** -0.24
24542 H 14.394622174924152 82.97153590447988 61.73988561065502 H 0.0 **** 0.06
24543 H 14.916995656214155 82.8786615254985 63.439422960644706 H 0.0 **** 0.06
24544 H 16.12545452055258 82.83020115344783 62.13232895732311 H 0.0 **** 0.06
24545 H 15.038376642386226 81.44471236133035 62.39020160828976 H 0.0 **** 0.06
24546 C 39.65754219300385 3.8835693448459665 53.499415053395865 C 0.0 **** -0.24
24547 H 40.63089888480367 3.8700289976834483 53.99004575126747 H 0.0 **** 0.06
24548 H 39.6815300814455 3.2317400157767793 52.62645678319802 H 0.0 **** 0.06
24549 H 39.423431445508726 4.901332013196395 53.18713092987599 H 0.0 **** 0.06
24550 H 38.89513481681985 3.532575665425952 54.19556269365967 H 0.0 **** 0.06
24551 C 8.896526561552111 92.403303298687 90.251792026961 C 0.0 **** -0.24
24552 H 9.866207888931438 92.75648998126336 89.90200592285163 H 0.0 **** 0.06
24553 H 8.105084810879884 92.95484549957472 89.74356249846335 H 0.0 **** 0.06
24554 H 8.817596923493301 92.56175654600318 91.32651555518487 H 0.0 **** 0.06
24555 H 8.797107802116148 91.34030507234111 90.03192900842095 H 0.0 **** 0.06
24556 C 118.16590296289507 95.72450284783906 79.03915351287351 C 0.0 **** -0.24
24557 H 119.14511615651315 96.15335857202047 78.82977280162648 H 0.0 **** 0.06
24558 H 117.65435961165247 96.33378617139687 79.78547340166875 H 0.0 **** 0.06
24559 H 118.28792987132022 94.71045542569377 79.42048584042301 H 0.0 **** 0.06
24560 H 117.57594966038124 95.70069739044743 78.12330121571568 H 0.0 **** 0.06
24561 C 58.12330024903055 46.69187548289969 6.017531360684522 C 0.0 **** -0.24
24562 H 57.57833051927946 47.31307212430225 6.727845908453887 H 0.0 **** 0.06
24563 H 58.758832378547524 45.991295253505 6.561229272402581 H 0.0 **** 0.06
24564 H 58.74121795109109 47.325171296057206 5.381120189178464 H 0.0 **** 0.06
24565 H 57.415112521451576 46.137866535303004 5.4013103823656365 H 0.0 **** 0.06
24566 C 111.96242279178418 96.31212361966102 86.82084593671993 C 0.0 **** -0.24
24567 H 112.373669405512 95.97784389143847 87.7732730165319 H 0.0 **** 0.06
24568 H 110.88842209148459 96.46762947874984 86.92380948728669 H 0.0 **** 0.06
24569 H 112.14914854481898 95.55542212143916 86.0593990516507 H 0.0 **** 0.06
24570 H 112.4390675445415 97.24833182840825 86.52892288499726 H 0.0 **** 0.06
24571 C 130.24661065508377 22.591253999338576 92.198726376266 C 0.0 **** -0.24
24572 H 129.35377598164905 22.653472670772736 92.82085188044795 H 0.0 **** 0.06
24573 H 130.8600383287718 23.478723087127953 92.35589250524413 H 0.0 **** 0.06
24574 H 129.95673101908972 22.530610197533598 91.15026458117342 H 0.0 **** 0.06
24575 H 130.816148097763 21.70206099680413 92.47011354364827 H 0.0 **** 0.06
24576 C 97.2109167998641 16.607332291225134 45.85562747148839 C 0.0 **** -0.24
24577 H 96.27566908816956 16.148928734863297 45.533272095461484 H 0.0 **** 0.06
24578 H 97.65003274003556 16.011743281378983 46.656744217978485 H 0.0 **** 0.06
24579 H 97.01482916991876 17.616150584929827 46.21807516030577 H 0.0 **** 0.06
24580 H 97.90226646494611 16.65140676110925 45.01460303482443 H 0.0 **** 0.06
24581 C 86.8523355279801 24.58933210469896 73.77732721002286 C 0.0 **** -0.24
24582 H 87.88288514967577 24.903548029316035 73.60976848606498 H 0.0 **** 0.06
24583 H 86.20417518127206 25.06281581963391 73.03987863572831 H 0.0 **** 0.06
24584 H 86.54086803775843 24.884933618644766 74.77968835077982 H 0.0 **** 0.06
24585 H 86.7836075753559 23.505786019736192 73.6803302160061 H 0.0 **** 0.06
24586 C 9.914642485379431 67.21721822501239 106.5859027445447 C 0.0 **** -0.24
24587 H 10.925600531712934 67.04275411814956 106.95627315029222 H 0.0 **** 0.06
24588 H 9.859314167932176 68.20758105390851 106.13512978760343 H 0.0 **** 0.06
24589 H 9.209507350668318 67.15424704831281 107.41501200016339 H 0.0 **** 0.06
24590 H 9.665603960792215 66.46256466394705 105.83982307023132 H 0.0 **** 0.06
24591 C 80.27536775337445 105.86661572137552 46.8064383352163 C 0.0 **** -0.24
24592 H 80.00055552897614 106.22708825630605 47.79840956366445 H 0.0 **** 0.06
24593 H 81.13104033714693 106.43313908799769 46.439205764747 H 0.0 **** 0.06
24594 H 79.43403014879107 105.99839960226711 46.12605601088845 H 0.0 **** 0.06
24595 H 80.53568708848906 104.81033690992734 46.86339371008857 H 0.0 **** 0.06
24596 C 129.77767476995703 9.220081472730158 33.851965268613526 C 0.0 **** -0.24
24597 H 130.1525942644121 10.23538422008329 33.98188745363714 H 0.0 **** 0.06
24598 H 128.77078005451753 9.150213464680121 34.2625289265913 H 0.0 **** 0.06
24599 H 130.43260794932047 8.522377369002868 34.37338789301717 H 0.0 **** 0.06
24600 H 129.755155412743 8.9745346650285 32.78985993433113 H 0.0 **** 0.06
24601 C 116.84827280385971 36.599486374039344 31.232044945112037 C 0.0 **** -0.24
24602 H 116.55091676754728 37.60594492235666 31.52774863683038 H 0.0 **** 0.06
24603 H 116.2449941571752 35.86987362635685 31.77181540829264 H 0.0 **** 0.06
24604 H 117.90152657405142 36.44872288946117 31.469344212274876 H 0.0 **** 0.06
24605 H 116.69534776210983 36.47644979050902 30.160065480639673 H 0.0 **** 0.06
24606 C 7.777369895225007 79.87739044694203 94.50447690057187 C 0.0 **** -0.24
24607 H 8.023810717968274 79.26252920627934 95.37071975720502 H 0.0 **** 0.06
24608 H 6.999085986760974 80.59090024186096 94.77536063348012 H 0.0 **** 0.06
24609 H 7.4207970638842085 79.2396215500045 93.69620054296821 H 0.0 **** 0.06
24610 H 8.66731672800887 80.41567696989623 94.17702712336299 H 0.0 **** 0.06
24611 C 18.08778416549515 32.59743826694497 23.28286647380341 C 0.0 **** -0.24
24612 H 17.00646345317503 32.45985215287617 23.293620511685788 H 0.0 **** 0.06
24613 H 18.33741759521581 33.475568015645194 22.68689048362694 H 0.0 **** 0.06
24614 H 18.56123149590499 31.716648615531923 22.847276815634245 H 0.0 **** 0.06
24615 H 18.44703013568838 32.73517160144964 24.302383954183824 H 0.0 **** 0.06
24616 C 37.63462762950809 73.98097359823313 88.73823621950754 C 0.0 **** -0.24
24617 H 37.42786849483812 72.92591813391542 88.55590208325414 H 0.0 **** 0.06
24618 H 37.38908901790123 74.22538514446158 89.77207415779343 H 0.0 **** 0.06
24619 H 37.03057784889913 74.59054577799994 88.06681336977218 H 0.0 **** 0.06
24620 H 38.69094276888305 74.18000948045703 88.55907964415042 H 0.0 **** 0.06
24621 C 122.3521485708481 57.51751240067725 61.626325278691354 C 0.0 **** -0.24
24622 H 121.5291739197373 56.89915562194503 61.267425994358405 H 0.0 **** 0.06
24623 H 122.01877929930049 58.55118156942865 61.712074839998195 H 0.0 **** 0.06
24624 H 123.18340497203644 57.45910213530266 60.92294903073969 H 0.0 **** 0.06
24625 H 122.67697603909275 57.157639702351986 62.602521884451306 H 0.0 **** 0.06
24626 C 25.576313053970523 48.00632044115963 52.35865046978074 C 0.0 **** -0.24
24627 H 26.068483096252407 47.224443303976784 52.937423200659495 H 0.0 **** 0.06
24628 H 25.468136001036783 48.899645263752916 52.97345900154545 H 0.0 **** 0.06
24629 H 24.591280069815923 47.659421192527134 52.04447846225962 H 0.0 **** 0.06
24630 H 26.176723777905565 48.23962777399868 51.479160431197116 H 0.0 **** 0.06
24631 C 8.705056164841096 96.93158308270422 30.704823296453128 C 0.0 **** -0.24
24632 H 9.055382877037744 97.83101382990917 30.199694075389033 H 0.0 **** 0.06
24633 H 9.33389710389838 96.08712544149186 30.420363298109294 H 0.0 **** 0.06
24634 H 7.673381402720054 96.73018523141857 30.416666836532727 H 0.0 **** 0.06
24635 H 8.75851085810558 97.07722451541787 31.7844367928856 H 0.0 **** 0.06
24636 C 79.75481884693848 84.94803570133084 10.788822016938411 C 0.0 **** -0.24
24637 H 79.12206405699621 85.01901955867486 11.673981193430734 H 0.0 **** 0.06
24638 H 79.25742363786807 85.43184363407833 9.947612769176658 H 0.0 **** 0.06
24639 H 79.93272910460804 83.89947493124322 10.552904123114388 H 0.0 **** 0.06
24640 H 80.70568145706295 85.44409958873536 10.982145462283256 H 0.0 **** 0.06
24641 C 37.43872623453936 72.9303729781501 132.54587249587647 C 0.0 **** -0.24
24642 H 38.492565920905264 72.73732660350421 132.3441248933328 H 0.0 **** 0.06
24643 H 37.29988284349045 73.10927872361069 133.6118904550265 H 0.0 **** 0.06
24644 H 36.846812977702214 72.066396262705 132.24258381198456 H 0.0 **** 0.06
24645 H 37.11535534158618 73.80759476846939 131.98455145813034 H 0.0 **** 0.06
24646 C 11.051845290674578 24.99692915070034 16.400285123391257 C 0.0 **** -0.24
24647 H 11.97315166979763 25.10967642562602 15.828874005031452 H 0.0 **** 0.06
24648 H 10.272681552534607 25.61919469664835 15.95879834761385 H 0.0 **** 0.06
24649 H 11.223358997003686 25.305912109222902 17.430749862633945 H 0.0 **** 0.06
24650 H 10.736909250253419 23.95373836058087 16.381408864983086 H 0.0 **** 0.06
24651 C 76.11030192625356 37.40414231274519 86.38017577954457 C 0.0 **** -0.24
24652 H 76.39257182201005 38.08753700056474 85.57837247601947 H 0.0 **** 0.06
24653 H 76.21405479821497 37.91022247491367 87.3410911618439 H 0.0 **** 0.06
24654 H 76.76040108031019 36.53021220666396 86.35776450990122 H 0.0 **** 0.06
24655 H 75.07508966811238 37.091932328777375 86.24370397780038 H 0.0 **** 0.06
24656 C 106.41477739731869 66.97066200923643 105.38419313552095 C 0.0 **** -0.24
24657 H 105.36898781349066 67.23763594513781 105.53839804738567 H 0.0 **** 0.06
24658 H 107.00953026339334 67.3365502641033 106.22119246549005 H 0.0 **** 0.06
24659 H 106.77233163252299 67.4227807404211 104.45879608157423 H 0.0 **** 0.06
24660 H 106.50642220836835 65.88694723326142 105.3173759397618 H 0.0 **** 0.06
24661 C 113.7295283975293 41.34037129116039 32.9329894654738 C 0.0 **** -0.24
24662 H 112.88504617314817 41.93476702093061 33.28365542075073 H 0.0 **** 0.06
24663 H 113.42948562266324 40.294378781439164 32.85743719905285 H 0.0 **** 0.06
24664 H 114.55442931037047 41.43176135630169 33.63877225649584 H 0.0 **** 0.06
24665 H 114.04542660784787 41.70062899785106 31.954760610098596 H 0.0 **** 0.06
24666 C 20.184066927043517 79.81204426765554 7.29954438274558 C 0.0 **** -0.24
24667 H 20.091027898959823 79.62570974341472 8.369054179640614 H 0.0 **** 0.06
24668 H 20.451869298984377 78.88535996729527 6.791742089311981 H 0.0 **** 0.06
24669 H 20.959906889371126 80.55890193638987 7.126789917436383 H 0.0 **** 0.06
24670 H 19.234064028826623 80.17884619085832 6.910112832483151 H 0.0 **** 0.06
24671 C 10.909512293079558 66.5040385737467 19.7261130701946 C 0.0 **** -0.24
24672 H 10.795047370000958 65.52679532405315 19.256330666749847 H 0.0 **** 0.06
24673 H 10.066831727884875 66.68741326608162 20.391966058853995 H 0.0 **** 0.06
24674 H 10.939986360802862 67.27519601872399 18.956104883427855 H 0.0 **** 0.06
24675 H 11.837372581228522 66.5248256962112 20.299109855764897 H 0.0 **** 0.06
24676 C 39.658629805940336 111.33301217931361 88.84818961688933 C 0.0 **** -0.24
24677 H 39.50423563440552 110.72955525630462 89.74314619838901 H 0.0 **** 0.06
24678 H 38.71719891767066 111.80060083138272 88.55871280277177 H 0.0 **** 0.06
24679 H 40.012812925183255 110.69603139603987 88.03769109040778 H 0.0 **** 0.06
24680 H 40.40068958759662 112.10483315414115 89.0545382634408 H 0.0 **** 0.06
24681 C 105.54755021213415 14.884977300058154 102.3111916001324 C 0.0 **** -0.24
24682 H 105.08427024304699 14.05644673934637 102.84521384422041 H 0.0 **** 0.06
24683 H 105.04365973170836 15.027945665078846 101.35537180303429 H 0.0 **** 0.06
24684 H 106.60024193671074 14.6625132908664 102.1381022109366 H 0.0 **** 0.06
24685 H 105.46215544214924 15.79419346742145 102.90683225213206 H 0.0 **** 0.06
24686 C 103.84520218728386 99.19136486504715 126.8911591000917 C 0.0 **** -0.24
24687 H 103.56836113869088 99.17145480261826 125.83740644694826 H 0.0 **** 0.06
24688 H 103.27581734014068 98.43390807520768 127.4306219894233 H 0.0 **** 0.06
24689 H 103.62567847089552 100.17463421956742 127.3060406873725 H 0.0 **** 0.06
24690 H 104.91088842340746 98.9845985720174 126.99106717193268 H 0.0 **** 0.06
24691 C 86.00606330453255 111.43564212684316 90.77162299448116 C 0.0 **** -0.24
24692 H 86.44738040620553 110.55238648471686 90.30955940334742 H 0.0 **** 0.06
24693 H 85.47448827501614 112.01440584529658 90.01588915608816 H 0.0 **** 0.06
24694 H 86.79489212922721 112.04748233213184 91.20970258702519 H 0.0 **** 0.06
24695 H 85.30993475748218 111.12815152866088 91.55146310789385 H 0.0 **** 0.06
24696 C 107.84041087984852 91.30697336696657 121.65014364916286 C 0.0 **** -0.24
24697 H 107.64125161086984 92.1509236699615 120.99050398668643 H 0.0 **** 0.06
24698 H 107.92753823119017 91.66239076032576 122.67721151179231 H 0.0 **** 0.06
24699 H 108.77128944183109 90.82464361323328 121.35166386595664 H 0.0 **** 0.06
24700 H 107.02251546708841 90.59020522096263 121.58104551714293 H 0.0 **** 0.06
24701 C 48.802717014812174 117.11224327581908 54.955969035057365 C 0.0 **** -0.24
24702 H 49.784396757727905 117.2733859222524 54.50892199382429 H 0.0 **** 0.06
24703 H 48.04403892252469 117.10638169330875 54.17318983989085 H 0.0 **** 0.06
24704 H 48.59030667055714 117.9138950155837 55.66331222999975 H 0.0 **** 0.06
24705 H 48.794965048259996 116.1548456546422 55.47713961411674 H 0.0 **** 0.06
24706 C 51.35239358498798 59.437215679215825 22.351207002143347 C 0.0 **** -0.24
24707 H 51.17027463349689 58.45983151423013 21.90336664513641 H 0.0 **** 0.06
24708 H 50.49868771316601 60.08831694346361 22.16300898710947 H 0.0 **** 0.06
24709 H 52.24837230439424 59.87623246326808 21.91127916322076 H 0.0 **** 0.06
24710 H 51.493462022622694 59.32306672528546 23.425590887764905 H 0.0 **** 0.06
24711 C 52.67461684106736 75.3596314166503 92.01535465622872 C 0.0 **** -0.24
24712 H 52.29743973910611 74.76045890065014 91.1865128145784 H 0.0 **** 0.06
24713 H 53.291075931055644 76.16910900776949 91.62611794103563 H 0.0 **** 0.06
24714 H 53.272124429375154 74.7310229145148 92.67480142837252 H 0.0 **** 0.06
24715 H 51.83552931793578 75.77675255392525 92.57283665735861 H 0.0 **** 0.06
24716 C 38.650444267621594 33.73044710740092 61.92424933751053 C 0.0 **** -0.24
24717 H 38.83059858945903 32.66031484581103 62.02713971878906 H 0.0 **** 0.06
24718 H 37.77602416171239 34.010369394120914 62.51273052503264 H 0.0 **** 0.06
24719 H 38.47489576847438 33.969561347756695 60.875816638326555 H 0.0 **** 0.06
24720 H 39.52038117636232 34.281071821999234 62.28218405221534 H 0.0 **** 0.06
24721 C 43.057920966094315 5.933466450717614 90.43244658677116 C 0.0 **** -0.24
24722 H 42.156711081311016 6.075827281962436 89.83478341178636 H 0.0 **** 0.06
24723 H 43.6389007896573 5.107411976661183 90.0209267626633 H 0.0 **** 0.06
24724 H 42.77918177738013 5.704686787347121 91.46116248581234 H 0.0 **** 0.06
24725 H 43.65576659581137 6.844013888343788 90.41090646859061 H 0.0 **** 0.06
24726 C 136.85644470729116 12.593821266553903 117.93585380428081 C 0.0 **** -0.24
24727 H 136.3787389118882 12.998780907492687 118.82805161260515 H 0.0 **** 0.06
24728 H 136.48926266837924 11.583661790788597 117.75311007500883 H 0.0 **** 0.06
24729 H 137.93649917151055 12.567553918476108 118.08184511222666 H 0.0 **** 0.06
24730 H 136.62199914159783 13.22681438210924 117.07933520652335 H 0.0 **** 0.06
24731 C 18.565537171871966 79.59813557833516 127.35590444389616 C 0.0 **** -0.24
24732 H 18.609439985359927 79.09219933288333 126.39114584916574 H 0.0 **** 0.06
24733 H 18.29256234309429 78.88042896639107 128.1301383026699 H 0.0 **** 0.06
24734 H 17.819431725388313 80.39158729797363 127.3156790563035 H 0.0 **** 0.06
24735 H 19.541213532540212 80.0269107541636 127.58499734584305 H 0.0 **** 0.06
24736 C 104.86647577103427 48.289921789909556 124.45730832914428 C 0.0 **** -0.24
24737 H 103.97145492592223 48.11407251052552 125.05428554132891 H 0.0 **** 0.06
24738 H 104.8583817288213 49.31310232040374 124.08329216318866 H 0.0 **** 0.06
24739 H 104.88468614489135 47.59546044246525 123.61710841156167 H 0.0 **** 0.06
24740 H 105.75066712754936 48.13477873067586 125.07511680474948 H 0.0 **** 0.06
24741 C 83.72018457143446 119.83145492395272 79.72389174508214 C 0.0 **** -0.24
24742 H 84.01085518863445 118.86858837665739 80.1439913349883 H 0.0 **** 0.06
24743 H 83.55857360959897 119.72471903172749 78.65104812796551 H 0.0 **** 0.06
24744 H 84.5114044282694 120.55976993803614 79.90166249336278 H 0.0 **** 0.06
24745 H 82.79983805025245 120.17149325529613 80.19820520097977 H 0.0 **** 0.06
24746 C 100.11929855793382 53.73799376982802 28.666938673754487 C 0.0 **** -0.24
24747 H 99.15128508332764 54.03636534873068 29.069008765595868 H 0.0 **** 0.06
24748 H 100.01524083556328 52.790096652244216 28.138008476882817 H 0.0 **** 0.06
24749 H 100.83227538926127 53.62259785192646 29.483392523501664 H 0.0 **** 0.06
24750 H 100.47717241976844 54.5023799945011 27.977818204785677 H 0.0 **** 0.06
24751 C 75.81441998671956 54.06325790116745 25.87210773363327 C 0.0 **** -0.24
24752 H 76.6309516533794 54.66532441485833 25.471136288787108 H 0.0 **** 0.06
24753 H 75.18479532720475 53.71397076288733 25.05346289706143 H 0.0 **** 0.06
24754 H 75.22006185436392 54.668163840402656 26.557218161031045 H 0.0 **** 0.06
24755 H 76.22516505209008 53.205949647803976 26.406522522712763 H 0.0 **** 0.06
24756 C 99.11121056418841 57.16552782087058 40.231849915840144 C 0.0 **** -0.24
24757 H 100.13453588776389 56.91603215785153 39.94993805751034 H 0.0 **** 0.06
24758 H 98.49445512184113 56.26904327653193 40.18847770896821 H 0.0 **** 0.06
24759 H 98.71659303944321 57.91311316054458 39.54295712239497 H 0.0 **** 0.06
24760 H 99.10206575472631 57.56497549488307 41.24592830785434 H 0.0 **** 0.06
24761 C 73.00231484218347 54.081152056043464 78.43623323547797 C 0.0 **** -0.24
24762 H 73.18160509317622 53.08103920494186 78.04401102160153 H 0.0 **** 0.06
24763 H 72.05016729546549 54.45419696390246 78.05761250951173 H 0.0 **** 0.06
24764 H 73.80568027104863 54.746215004117914 78.11800789871808 H 0.0 **** 0.06
24765 H 72.97153679044317 54.04454216169265 79.52520820828886 H 0.0 **** 0.06
24766 C 89.59598587134883 23.299723059109937 44.31290746516386 C 0.0 **** -0.24
24767 H 89.71679929636088 22.295002515310614 44.71815530971994 H 0.0 **** 0.06
24768 H 88.91017781323978 23.270113101284352 43.467300857874434 H 0.0 **** 0.06
24769 H 90.56455723635594 23.676202106936756 43.983488108816 H 0.0 **** 0.06
24770 H 89.19398207574292 23.95620210174954 45.08484029446069 H 0.0 **** 0.06
24771 C 99.5147149874358 116.34191343350489 3.475875720004524 C 0.0 **** -0.24
24772 H 98.64284063886791 116.6525984863116 4.051285109446212 H 0.0 **** 0.06
24773 H 99.68214107116926 115.27376850205198 3.6189457569172987 H 0.0 **** 0.06
24774 H 100.39007692548955 116.89598832984294 3.8160691790769192 H 0.0 **** 0.06
24775 H 99.34359536339551 116.54526755399954 2.4194292360552936 H 0.0 **** 0.06
24776 C 14.393090205306137 52.05347480851253 100.93870599108264 C 0.0 **** -0.24
24777 H 13.879217486416394 53.01410904432038 100.98304322404526 H 0.0 **** 0.06
24778 H 14.10546874130452 51.44769077117064 101.7973005397346 H 0.0 **** 0.06
24779 H 15.470876056182021 52.21757868580244 100.95265836846804 H 0.0 **** 0.06
24780 H 14.117017558880107 51.53588673354989 100.01980035997835 H 0.0 **** 0.06
24781 C 76.0082584159345 12.732145960572211 137.0529337811462 C 0.0 **** -0.24
24782 H 75.5884368289823 12.515561075868789 136.070766345707 H 0.0 **** 0.06
24783 H 77.03184167564339 12.359369630889887 137.0996586760568 H 0.0 **** 0.06
24784 H 75.40793260425218 12.243661736366391 137.82074115573653 H 0.0 **** 0.06
24785 H 76.00619288928765 13.809138847900783 137.21994007592122 H 0.0 **** 0.06
24786 C 127.6284339254349 17.90914565949629 9.734690500823437 C 0.0 **** -0.24
24787 H 127.69673734044841 18.80454801421314 10.352969851347499 H 0.0 **** 0.06
24788 H 127.1848954552123 18.165318931299907 8.77209921653342 H 0.0 **** 0.06
24789 H 127.00529720453113 17.168397556210095 10.236767170335188 H 0.0 **** 0.06
24790 H 128.6259507311613 17.498111393331897 9.578417885058872 H 0.0 **** 0.06
24791 C 104.65116335329358 117.71412179211671 114.70885701796959 C 0.0 **** -0.24
24792 H 104.35038604014827 116.85309872385562 114.11260345562158 H 0.0 **** 0.06
24793 H 105.23279324811111 117.37722038733989 115.56699055931227 H 0.0 **** 0.06
24794 H 103.76277424186227 118.24230635032416 115.05760047863618 H 0.0 **** 0.06
24795 H 105.25642561254975 118.38507966454813 114.09939316605136 H 0.0 **** 0.06
24796 C 109.24098977508311 82.2675891253337 76.79869294431018 C 0.0 **** -0.24
24797 H 109.65200070319781 82.88015818222985 77.60202058257818 H 0.0 **** 0.06
24798 H 108.4512454169714 81.63005528083539 77.19581697561608 H 0.0 **** 0.06
24799 H 110.03106590793453 81.6462634599799 76.3760131342894 H 0.0 **** 0.06
24800 H 108.83224696287527 82.91378241296553 76.02241492030493 H 0.0 **** 0.06
24801 C 17.901480387725755 11.208737283259644 59.177530440752975 C 0.0 **** -0.24
24802 H 17.165718761906717 11.912128354018453 58.78778707796265 H 0.0 **** 0.06
24803 H 18.206879710058708 11.5201607529951 60.176820574885255 H 0.0 **** 0.06
24804 H 18.77147202565542 11.191077584370895 58.5206295538177 H 0.0 **** 0.06
24805 H 17.462255174191363 10.212272027073993 59.22605128293472 H 0.0 **** 0.06
24806 C 43.855036403855244 107.30462445887196 121.2318145808959 C 0.0 **** -0.24
24807 H 43.80088022120918 106.22495065444801 121.08994958883841 H 0.0 **** 0.06
24808 H 43.42826545629294 107.80646886404995 120.36294873938664 H 0.0 **** 0.06
24809 H 44.89649801184008 107.60444406154619 121.34858354031206 H 0.0 **** 0.06
24810 H 43.2935731479551 107.58302556096382 122.12378033808614 H 0.0 **** 0.06
24811 C 28.615359578131063 18.816583721388724 81.05799724573211 C 0.0 **** -0.24
24812 H 28.85570863840269 19.814069053778212 81.42554641311506 H 0.0 **** 0.06
24813 H 29.475639788898093 18.40759454479644 80.52819551721814 H 0.0 **** 0.06
24814 H 27.764570810881935 18.875978341343682 80.3783540531258 H 0.0 **** 0.06
24815 H 28.363934015923576 18.170549416528615 81.89968956958705 H 0.0 **** 0.06
24816 C 64.15976976864626 115.83882695042891 31.625956589474164 C 0.0 **** -0.24
24817 H 64.03734974208763 116.27084640479652 32.61917690266378 H 0.0 **** 0.06
24818 H 65.13519821058107 115.35716181603581 31.557006461924573 H 0.0 **** 0.06
24819 H 64.0902035861331 116.6278770008889 30.876511012680915 H 0.0 **** 0.06
24820 H 63.37573848726761 115.10149922911154 31.451715746011523 H 0.0 **** 0.06
24821 C 110.17841204406716 90.55891404035955 47.0436197114893 C 0.0 **** -0.24
24822 H 110.79279754884155 89.6584847663204 47.067213526594514 H 0.0 **** 0.06
24823 H 109.13469748700653 90.28241507062441 46.896843455240514 H 0.0 **** 0.06
24824 H 110.50438367640743 91.19877559250922 46.223214457592206 H 0.0 **** 0.06
24825 H 110.28452454554017 91.0948024932989 47.98706010921259 H 0.0 **** 0.06
24826 C 62.250302050452206 45.538159067846735 94.39267917083544 C 0.0 **** -0.24
24827 H 62.54785125972073 46.55767559293112 94.14571839709379 H 0.0 **** 0.06
24828 H 61.175092803744434 45.429040055777904 94.24943393593026 H 0.0 **** 0.06
24829 H 62.501503690593424 45.329768038014045 95.43245172088501 H 0.0 **** 0.06
24830 H 62.77718900843969 44.83902700556076 93.7443594268131 H 0.0 **** 0.06
24831 C 70.76430524355285 62.34563296978422 76.72825808271449 C 0.0 **** -0.24
24832 H 71.16081173142643 61.42552243376758 76.29998220373875 H 0.0 **** 0.06
24833 H 71.55948857302121 62.8726881283859 77.25633519293712 H 0.0 **** 0.06
24834 H 69.96229217055367 62.10453278031352 77.42669049915469 H 0.0 **** 0.06
24835 H 70.37449973789863 62.979647083522764 75.9314256859775 H 0.0 **** 0.06
24836 C 135.11771014385045 80.70907837419338 34.23521148264606 C 0.0 **** -0.24
24837 H 135.22957813075647 81.49046323443153 34.987633151068145 H 0.0 **** 0.06
24838 H 135.12621220071227 81.15788078257407 33.24131549625026 H 0.0 **** 0.06
24839 H 134.17392952889446 80.18776782113278 34.3913987527516 H 0.0 **** 0.06
24840 H 135.94221974931483 80.00138888945821 34.32204217502185 H 0.0 **** 0.06
24841 C 52.578975914008396 88.47344388320762 21.426282572852188 C 0.0 **** -0.24
24842 H 53.38853403687878 87.74420275796359 21.45762091072484 H 0.0 **** 0.06
24843 H 52.75646857650217 89.17874536784797 20.61372716966728 H 0.0 **** 0.06
24844 H 52.539438983342535 89.01225866320213 22.37339796357559 H 0.0 **** 0.06
24845 H 51.63264829662798 87.95904718527586 21.26155218315651 H 0.0 **** 0.06
24846 C 78.42547190772058 95.5902286302528 124.30839602320478 C 0.0 **** -0.24
24847 H 78.92596161111405 94.78562379778623 123.76899801070047 H 0.0 **** 0.06
24848 H 78.8274719501099 95.65322413051314 125.32003065846109 H 0.0 **** 0.06
24849 H 77.35594962598606 95.38683525356652 124.35367568437218 H 0.0 **** 0.06
24850 H 78.59540960998828 96.53426770514972 123.79008482943786 H 0.0 **** 0.06
24851 C 109.7481770276923 128.7568764362398 0.29231973615318907 C 0.0 **** -0.24
24852 H 110.40971525759875 129.37070269649067 -0.3185726695914184 H 0.0 **** 0.06
24853 H 109.46165890108466 129.3110982228641 1.1872916545770238 H 0.0 **** 0.06
24854 H 110.26435329367132 127.84150963360796 0.5810457691691511 H 0.0 **** 0.06
24855 H 108.85478466120122 128.5045681308745 -0.2802889731496805 H 0.0 **** 0.06
24856 C 83.00778809238668 103.69482837480388 44.9367810453127 C 0.0 **** -0.24
24857 H 82.36664907818101 104.36115740026275 44.36023839629162 H 0.0 **** 0.06
24858 H 82.39592270809312 103.09369477306484 45.61022017389912 H 0.0 **** 0.06
24859 H 83.715370784886 104.28558229940566 45.51916633847637 H 0.0 **** 0.06
24860 H 83.55413688440326 103.04019617021481 44.258136283529 H 0.0 **** 0.06
24861 C 64.94902821149759 2.295047554791381 110.83767399088569 C 0.0 **** -0.24
24862 H 65.57007665663298 2.155690551813393 111.7229188992415 H 0.0 **** 0.06
24863 H 65.50100108616437 2.8725748996173195 110.09480302994766 H 0.0 **** 0.06
24864 H 64.04099301047802 2.83099867163304 111.11254941725977 H 0.0 **** 0.06
24865 H 64.68689180908808 1.3229566482241069 110.42174999384127 H 0.0 **** 0.06
24866 C 68.81496803110474 134.073581184482 86.89128641242824 C 0.0 **** -0.24
24867 H 68.40737391396533 134.1864275373642 85.88627107115441 H 0.0 **** 0.06
24868 H 69.60543549104324 134.8072086516771 87.04605380227034 H 0.0 **** 0.06
24869 H 69.22351339224008 133.06943372779142 87.00508288928656 H 0.0 **** 0.06
24870 H 68.0240522826216 134.22981432107207 87.62390738006579 H 0.0 **** 0.06
24871 C 29.39444173921612 29.356328224419002 4.249646672649476 C 0.0 **** -0.24
24872 H 29.62455783485518 28.56770259003008 4.964836279212079 H 0.0 **** 0.06
24873 H 28.39309299290386 29.201484940108855 3.8479486462895807 H 0.0 **** 0.06
24874 H 30.119919800055072 29.331121847014316 3.4357214026975953 H 0.0 **** 0.06
24875 H 29.440957601264756 30.324028589452325 4.748508688320015 H 0.0 **** 0.06
24876 C 112.26581701840527 102.83418404025919 104.92235336531519 C 0.0 **** -0.24
24877 H 111.77127262136486 102.45244320022827 104.02905115390695 H 0.0 **** 0.06
24878 H 112.92311910783368 103.65937392195882 104.64982144959026 H 0.0 **** 0.06
24879 H 112.85193352346354 102.0374459965565 105.38088255290972 H 0.0 **** 0.06
24880 H 111.51500367780193 103.18547932513974 105.63017326747445 H 0.0 **** 0.06
24881 C 5.519836290621129 17.013654880689465 41.0965653944599 C 0.0 **** -0.24
24882 H 6.377477666762502 17.68709739910691 41.08121736234904 H 0.0 **** 0.06
24883 H 4.6118632315547075 17.57827801174875 40.880920360750366 H 0.0 **** 0.06
24884 H 5.43771598535119 16.553407256564682 42.08113709569645 H 0.0 **** 0.06
24885 H 5.6541486231591875 16.238862498579927 40.34180979228728 H 0.0 **** 0.06
24886 C 15.361024254382244 5.587931080138784 121.47571266085416 C 0.0 **** -0.24
24887 H 16.24810718962854 6.166634548427158 121.73413720798207 H 0.0 **** 0.06
24888 H 14.9183908274143 5.176909915068478 122.3830319610544 H 0.0 **** 0.06
24889 H 15.6401747965283 4.774658462709976 120.80564721873232 H 0.0 **** 0.06
24890 H 14.637758673990817 6.234632784684166 120.97922615044806 H 0.0 **** 0.06
24891 C 18.217173923536677 123.84907408025482 103.11519362184366 C 0.0 **** -0.24
24892 H 17.800137532204133 123.66962934849333 104.10636127585322 H 0.0 **** 0.06
24893 H 18.522471059909208 124.89212310823221 103.03314829462535 H 0.0 **** 0.06
24894 H 17.462789627439122 123.63023323945467 102.35907847875536 H 0.0 **** 0.06
24895 H 19.08206068841986 123.20346381967752 102.96305443584622 H 0.0 **** 0.06
24896 C 2.339827244638059 19.96623825110251 55.31887228934522 C 0.0 **** -0.24
24897 H 1.6089409569657107 19.736366211864308 54.545155267837245 H 0.0 **** 0.06
24898 H 1.821944072675592 20.281093124095378 56.22530018509383 H 0.0 **** 0.06
24899 H 2.992558832177167 20.768554541529824 54.97640176784503 H 0.0 **** 0.06
24900 H 2.9357490819405427 19.0784104585631 55.53102093718522 H 0.0 **** 0.06
24901 C 37.865534392835855 25.510739369602256 91.04618422481336 C 0.0 **** -0.24
24902 H 38.68376835040942 25.309178520468656 90.35601801248484 H 0.0 **** 0.06
24903 H 36.97039262872818 24.98722509208188 90.71081417233664 H 0.0 **** 0.06
24904 H 37.6706706021252 26.582814118911912 91.07648113739582 H 0.0 **** 0.06
24905 H 38.137783915656485 25.164072499781554 92.04358253382772 H 0.0 **** 0.06
24906 C 129.29287583654073 96.36896571138092 124.04329483348232 C 0.0 **** -0.24
24907 H 128.7358319700806 96.87230340685733 123.25344527217396 H 0.0 **** 0.06
24908 H 129.1077927102856 95.29521708911432 123.98950555674253 H 0.0 **** 0.06
24909 H 128.96971973725638 96.74584553356783 125.01300393254093 H 0.0 **** 0.06
24910 H 130.35878284630564 96.56052630151225 123.91483119352131 H 0.0 **** 0.06
24911 C 1.7923698282301075 135.5501118497241 30.02702085710817 C 0.0 **** -0.24
24912 H 1.0638724681328995 136.34906874526274 29.887559194934795 H 0.0 **** 0.06
24913 H 2.6619323795641208 135.9400693028343 30.55602294921718 H 0.0 **** 0.06
24914 H 2.1005131360725784 135.1649524916247 29.054940593484247 H 0.0 **** 0.06
24915 H 1.3421483192985306 134.74596423127988 30.61046608964132 H 0.0 **** 0.06
24916 C 11.964978257505948 9.485744286722593 30.64216380678564 C 0.0 **** -0.24
24917 H 13.010336294346814 9.639984852244169 30.374573658144342 H 0.0 **** 0.06
24918 H 11.611485804033094 8.553522538189554 30.20182899228766 H 0.0 **** 0.06
24919 H 11.367762151004996 10.315261090125972 30.264301621560044 H 0.0 **** 0.06
24920 H 11.871959550134562 9.435009546008729 31.726647339284717 H 0.0 **** 0.06
24921 C 0.28513216121274354 6.361865827513483 16.7802020148616 C 0.0 **** -0.24
24922 H 0.4091852754978049 7.319274833452646 16.27414580990947 H 0.0 **** 0.06
24923 H 1.046458782817325 5.664149359212988 16.428132884631054 H 0.0 **** 0.06
24924 H -0.7046085852934993 5.961000023818091 16.561049251904052 H 0.0 **** 0.06
24925 H 0.39006191176079597 6.502958529658226 17.855319030847284 H 0.0 **** 0.06
24926 C 14.880195205829011 19.340593140862325 68.70540013443821 C 0.0 **** -0.24
24927 H 14.46126011028818 18.49556186119932 68.1592384610129 H 0.0 **** 0.06
24928 H 14.780266859427797 20.245848610961332 68.1060989197093 H 0.0 **** 0.06
24929 H 15.9349581303874 19.15447264142631 68.90871863612811 H 0.0 **** 0.06
24930 H 14.344638967081607 19.4659427146226 69.64593722402161 H 0.0 **** 0.06
24931 C 85.10175318593865 129.59436941664086 37.69814080952537 C 0.0 **** -0.24
24932 H 84.49451607314128 129.9817244070517 38.51479994977586 H 0.0 **** 0.06
24933 H 84.75560454394946 130.01869418975795 36.754477855121905 H 0.0 **** 0.06
24934 H 85.01391865457381 128.50826493086024 37.662810576998424 H 0.0 **** 0.06
24935 H 86.14462600081319 129.86960036597023 37.85810429428051 H 0.0 **** 0.06
24936 C 26.41555019402709 38.67128622699431 5.43408303165479 C 0.0 **** -0.24
24937 H 26.830984457823178 37.67231510528448 5.560917819526384 H 0.0 **** 0.06
24938 H 25.702171923987763 38.666610614552596 4.609834492539541 H 0.0 **** 0.06
24939 H 27.2200034862133 39.37382616575853 5.2146505089942785 H 0.0 **** 0.06
24940 H 25.909862314989653 38.97327221765735 6.352175277228632 H 0.0 **** 0.06
24941 C 130.5138320620499 43.40398331753113 120.58334698040028 C 0.0 **** -0.24
24942 H 129.70802159860224 44.100811721881314 120.35189774032908 H 0.0 **** 0.06
24943 H 130.803383501446 43.51809472929233 121.62852575226187 H 0.0 **** 0.06
24944 H 131.37030416986443 43.61413199734835 119.9435899394239 H 0.0 **** 0.06
24945 H 130.17255035105663 42.38379020574712 120.40961200962678 H 0.0 **** 0.06
24946 C 92.78075901619872 34.89413867063544 3.765030412543922 C 0.0 **** -0.24
24947 H 91.84799604502595 35.44650719526422 3.8748997621294166 H 0.0 **** 0.06
24948 H 93.04801817715065 34.83884010495727 2.7086328639462067 H 0.0 **** 0.06
24949 H 92.65538781219914 33.88697346496113 4.161177256437071 H 0.0 **** 0.06
24950 H 93.57224528481947 35.40425082882183 4.313507491567719 H 0.0 **** 0.06
24951 C 75.74597407572999 69.3053357138062 58.01841294770885 C 0.0 **** -0.24
24952 H 75.31326715463933 69.11545785389615 59.00163228690573 H 0.0 **** 0.06
24953 H 76.8197344691258 69.12400650896598 58.05472210935628 H 0.0 **** 0.06
24954 H 75.56036840442128 70.34152972974076 57.73484359264471 H 0.0 **** 0.06
24955 H 75.28818595631958 68.63959429573767 57.28644813654985 H 0.0 **** 0.06
24956 C 76.79630518722021 49.90576299911318 81.36631309242844 C 0.0 **** -0.24
24957 H 77.24960439750902 50.895887991826186 81.39856723008093 H 0.0 **** 0.06
24958 H 75.92489774806435 49.883824263414056 82.02145572754613 H 0.0 **** 0.06
24959 H 77.52051609421477 49.16347549161512 81.70090067239994 H 0.0 **** 0.06
24960 H 76.48889921868977 49.67949326499702 80.34473358193402 H 0.0 **** 0.06
24961 C 103.35996805338893 128.62696619640556 54.977965621556265 C 0.0 **** -0.24
24962 H 103.5355096958994 127.99950738832634 54.104111148805 H 0.0 **** 0.06
24963 H 102.7082501067228 129.4570355554855 54.703095298138024 H 0.0 **** 0.06
24964 H 104.31045935503157 129.01690702618416 55.34270870402575 H 0.0 **** 0.06
24965 H 102.88482015689257 128.0356092304527 55.76100936324059 H 0.0 **** 0.06
24966 C 104.24125376983261 112.79659408276396 112.68218820823085 C 0.0 **** -0.24
24967 H 104.68540616534422 113.78989006243518 112.6146839492215 H 0.0 **** 0.06
24968 H 104.51250217864248 112.21751009253603 111.80060156901632 H 0.0 **** 0.06
24969 H 103.15660910488113 112.88809443198826 112.7384615914817 H 0.0 **** 0.06
24970 H 104.60969473031858 112.29436209240427 113.57612070117017 H 0.0 **** 0.06
24971 C 46.51718574292664 5.687473637471584 121.10927873833472 C 0.0 **** -0.24
24972 H 47.33831595211609 5.073973960445869 121.4795507610519 H 0.0 **** 0.06
24973 H 46.85690511827147 6.271645143029872 120.25259993385478 H 0.0 **** 0.06
24974 H 46.18204835841988 6.361503529672007 121.89820189232762 H 0.0 **** 0.06
24975 H 45.69117305713655 5.044226438605762 120.80587117954562 H 0.0 **** 0.06
24976 C 116.79434603771551 120.62459891113888 78.33482058759256 C 0.0 **** -0.24
24977 H 117.38959648951004 121.4571334615384 77.95913028160311 H 0.0 **** 0.06
24978 H 116.73095713317849 120.68501820453642 79.42233128716859 H 0.0 **** 0.06
24979 H 117.26667008200775 119.68346208511858 78.05051862533156 H 0.0 **** 0.06
24980 H 115.79313667488304 120.67126414626887 77.90898713556442 H 0.0 **** 0.06
24981 C 68.09716261162202 10.78025142437005 82.14045666900756 C 0.0 **** -0.24
24982 H 67.05949872863044 10.875529678424726 81.81872566457045 H 0.0 **** 0.06
24983 H 68.67918399336571 11.610828199549843 81.73887794000127 H 0.0 **** 0.06
24984 H 68.50544164717209 9.83905683729779 81.7729773960751 H 0.0 **** 0.06
24985 H 68.14299510382091 10.796497938159746 83.22863148057202 H 0.0 **** 0.06
24986 C 21.78907905886802 74.22691662286746 117.05505812626484 C 0.0 **** -0.24
24987 H 22.495465645385096 73.49713124296517 117.45127444665346 H 0.0 **** 0.06
24988 H 21.639486160135213 75.02111097311581 117.78590511537382 H 0.0 **** 0.06
24989 H 20.83732689759723 73.73597610008676 116.85042353108321 H 0.0 **** 0.06
24990 H 22.184507318856447 74.651378056531 116.13192646056362 H 0.0 **** 0.06
24991 C 66.76412701672234 103.44877365415032 52.16728268159471 C 0.0 **** -0.24
24992 H 66.53487714519656 103.56458748365849 51.10819265061565 H 0.0 **** 0.06
24993 H 67.84317562991293 103.50649135757534 52.313121147132705 H 0.0 **** 0.06
24994 H 66.40121700905274 102.48088489673276 52.51317535835881 H 0.0 **** 0.06
24995 H 66.2776269824023 104.24303358240867 52.73328527432324 H 0.0 **** 0.06
24996 C 32.60169041187325 83.18814274990194 58.06535865933705 C 0.0 **** -0.24
24997 H 33.036197085075884 82.56241230215656 58.844179154472954 H 0.0 **** 0.06
24998 H 31.582839753292433 83.45925512740646 58.3430392351746 H 0.0 **** 0.06
24999 H 32.58788942608112 82.63841761305218 57.12350945068053 H 0.0 **** 0.06
25000 H 33.19980168453648 84.09192880930931 57.94906710500378 H 0.0 **** 0.06
25001 C 21.913465953600124 27.49122842725184 42.577527832122485 C 0.0 **** -0.24
25002 H 22.252829517195522 28.521467628808082 42.46527512528579 H 0.0 **** 0.06
25003 H 22.727781532376284 26.811783688131 42.32404393024619 H 0.0 **** 0.06
25004 H 21.069233693375892 27.31202268730769 41.91298198759193 H 0.0 **** 0.06
25005 H 21.60628700361957 27.321566898974652 43.60958312554654 H 0.0 **** 0.06
25006 C 43.47490712487968 94.3996899167833 80.73599300417291 C 0.0 **** -0.24
25007 H 44.146839829191975 94.63096973597484 79.90952513138893 H 0.0 **** 0.06
25008 H 43.99672483476007 94.54890520069787 81.68092533433907 H 0.0 **** 0.06
25009 H 43.14926699732797 93.36195333306323 80.65924415621637 H 0.0 **** 0.06
25010 H 42.60701998271651 95.05675219354454 80.69184462459768 H 0.0 **** 0.06
25011 C 126.0855185160479 123.90331282076801 32.26994485644886 C 0.0 **** -0.24
25012 H 125.79720351797397 124.9409373965467 32.436806301128655 H 0.0 **** 0.06
25013 H 125.43569233250082 123.46286839423915 31.513964245022038 H 0.0 **** 0.06
25014 H 125.988311302617 123.34549946366894 33.20152152736517 H 0.0 **** 0.06
25015 H 127.119600685927 123.86430883488583 31.92929436007013 H 0.0 **** 0.06
25016 C 134.5622694240604 1.9466798134616852 39.2033155621659 C 0.0 **** -0.24
25017 H 134.48838587976485 1.9652130587923011 40.290327415761325 H 0.0 **** 0.06
25018 H 135.60894714135412 2.038053799413092 38.909176616777536 H 0.0 **** 0.06
25019 H 133.99326396008576 2.7775182235423017 38.786033422680575 H 0.0 **** 0.06
25020 H 134.1605596127955 1.00520673671258 38.8273384599089 H 0.0 **** 0.06
25021 C 111.17896634945359 85.18475319551467 133.22238721283796 C 0.0 **** -0.24
25022 H 110.28858122054501 84.58232415148353 133.3977027969212 H 0.0 **** 0.06
25023 H 112.0660025430341 84.60802158887878 133.4862120623713 H 0.0 **** 0.06
25024 H 111.13457177199709 86.08497782364873 133.83649621558018 H 0.0 **** 0.06
25025 H 111.226241418976 85.46595425565258 132.1699442773395 H 0.0 **** 0.06
25026 C 66.6509959531891 118.84405831166251 36.124201413192395 C 0.0 **** -0.24
25027 H 67.33138850011207 119.65283424493049 35.860045257134004 H 0.0 **** 0.06
25028 H 65.65117784459943 119.24845960874183 36.28180343873822 H 0.0 **** 0.06
25029 H 66.99676531749044 118.3621293523322 37.03892820675526 H 0.0 **** 0.06
25030 H 66.62465215055445 118.1128100406456 35.31602875014187 H 0.0 **** 0.06
25031 C 90.99515542027456 2.924423572127182 102.62428072222383 C 0.0 **** -0.24
25032 H 89.98027287560166 2.71618640413638 102.96307087175815 H 0.0 **** 0.06
25033 H 90.98183763435276 3.7692561309217467 101.93604411884215 H 0.0 **** 0.06
25034 H 91.39642004428563 2.0475307059272723 102.11631846092692 H 0.0 **** 0.06
25035 H 91.62194726283894 3.1644248067830176 103.48366218417212 H 0.0 **** 0.06
25036 C 8.284434223851633 94.12948103996301 51.00856874752628 C 0.0 **** -0.24
25037 H 8.339781863016157 93.60257691063899 51.96063843721792 H 0.0 **** 0.06
25038 H 9.096637887528999 93.79661950224585 50.361543621194315 H 0.0 **** 0.06
25039 H 8.375049767437162 95.20182364742517 51.18097004023052 H 0.0 **** 0.06
25040 H 7.328478848971088 93.9172305950466 50.5310678822256 H 0.0 **** 0.06
25041 C 95.8215816522696 35.39264118935199 15.177850437599204 C 0.0 **** -0.24
25042 H 95.17975135125658 36.24505644771493 15.40007137796033 H 0.0 **** 0.06
25043 H 96.34739554845575 35.568891026939 14.238357010254617 H 0.0 **** 0.06
25044 H 95.21328010012326 34.491862497738765 15.090809790429262 H 0.0 **** 0.06
25045 H 96.5466362953747 35.26498057357128 15.981526108485298 H 0.0 **** 0.06
25046 C 9.67608011395231 113.74612781050931 13.394166260326358 C 0.0 **** -0.24
25047 H 10.217230772980429 114.69196622430007 13.373460924967844 H 0.0 **** 0.06
25048 H 8.603929760843869 113.94102905577489 13.375453303571277 H 0.0 **** 0.06
25049 H 9.931070742107579 113.20148467137881 14.302545384071493 H 0.0 **** 0.06
25050 H 9.952490439720066 113.15142953152173 12.523832804127295 H 0.0 **** 0.06
25051 C 71.02911685583253 12.401349264861437 104.63019426669835 C 0.0 **** -0.24
25052 H 70.2390239018764 13.10421319242947 104.36634492517904 H 0.0 **** 0.06
25053 H 71.98732773568511 12.921329509621302 104.65060398429436 H 0.0 **** 0.06
25054 H 71.06487740473857 11.600899452649756 103.89027913194072 H 0.0 **** 0.06
25055 H 70.82463265845408 11.977716266826022 105.61386361870181 H 0.0 **** 0.06
25056 C 33.633499728994984 29.2899223325675 92.6376459546254 C 0.0 **** -0.24
25057 H 33.707446453541074 30.37644271951325 92.60480779358043 H 0.0 **** 0.06
25058 H 34.46904091945749 28.88662059488695 93.2114994039885 H 0.0 **** 0.06
25059 H 33.66280563216469 28.892336572682296 91.62341187595996 H 0.0 **** 0.06
25060 H 32.69528251663456 29.00482697133856 93.11240705760568 H 0.0 **** 0.06
25061 C 76.71288261098088 17.311864212666876 100.449486999039 C 0.0 **** -0.24
25062 H 77.4684184008541 17.177296496231065 101.22240496384151 H 0.0 **** 0.06
25063 H 77.10387274990754 16.958598336897808 99.49423096498117 H 0.0 **** 0.06
25064 H 76.45764913699351 18.368634511932555 100.36981594238432 H 0.0 **** 0.06
25065 H 75.82125655608351 16.74184355000625 100.71018696862508 H 0.0 **** 0.06
25066 C 16.724309209544856 58.30026342787562 59.445487238913785 C 0.0 **** -0.24
25067 H 16.719925344900787 59.227813823105095 60.017739015473026 H 0.0 **** 0.06
25068 H 15.712112868167935 57.900942557034924 59.39226683362649 H 0.0 **** 0.06
25069 H 17.376080515858575 57.5752252129612 59.933809726703444 H 0.0 **** 0.06
25070 H 17.091930956348563 58.497209777586065 58.438396651447206 H 0.0 **** 0.06
25071 C 68.3461366070232 120.18975467780524 48.08743573413858 C 0.0 **** -0.24
25072 H 68.10767900494454 119.14679587780523 48.29346225575111 H 0.0 **** 0.06
25073 H 67.8629106055131 120.49639260900825 47.15964972293054 H 0.0 **** 0.06
25074 H 69.42631628107574 120.3031375277231 47.990537302323986 H 0.0 **** 0.06
25075 H 67.98738898175486 120.81300287033629 48.9074503445988 H 0.0 **** 0.06
25076 C 42.514522686565044 130.87701032160368 70.81609377472662 C 0.0 **** -0.24
25077 H 43.55387301082527 130.57335640463225 70.93660191495029 H 0.0 **** 0.06
25078 H 41.94801600113641 130.59376407497075 71.70334278900572 H 0.0 **** 0.06
25079 H 42.09132621240519 130.38169301532474 69.94199561673594 H 0.0 **** 0.06
25080 H 42.464614075652946 131.9565898241786 70.68103007487908 H 0.0 **** 0.06
25081 C 110.67068047205964 2.9812538428922437 117.46535167465146 C 0.0 **** -0.24
25082 H 110.63332248049352 3.9617374862803842 117.94048669299139 H 0.0 **** 0.06
25083 H 111.40708369254398 2.358557412915104 117.97482550557717 H 0.0 **** 0.06
25084 H 110.95380532305975 3.096842040257201 116.41862257964405 H 0.0 **** 0.06
25085 H 109.69014098885427 2.510282332937834 117.52622176893564 H 0.0 **** 0.06
25086 C 8.733045700611285 122.16476015046936 65.56296156649512 C 0.0 **** -0.24
25087 H 9.072557145572603 121.39118821141443 64.87484860120946 H 0.0 **** 0.06
25088 H 9.597177887278463 122.67825888510976 65.9866970515485 H 0.0 **** 0.06
25089 H 8.15198552803713 121.7084511740735 66.36395296774367 H 0.0 **** 0.06
25090 H 8.112529074523508 122.88177595125399 65.02577584223604 H 0.0 **** 0.06
25091 C 43.69248576684626 109.98772202966038 9.060045030068324 C 0.0 **** -0.24
25092 H 43.036894924439025 109.26312290304786 8.578043192256558 H 0.0 **** 0.06
25093 H 43.19069488385327 110.40539219363527 9.93344908941846 H 0.0 **** 0.06
25094 H 43.928067686608 110.78786698696254 8.358237880115695 H 0.0 **** 0.06
25095 H 44.612423982295326 109.49369822996096 9.371389194728039 H 0.0 **** 0.06
25096 C 85.72837770965755 132.3626375919569 85.29360694683528 C 0.0 **** -0.24
25097 H 85.96829273294965 133.33902192030152 85.71510487965514 H 0.0 **** 0.06
25098 H 84.69522113181604 132.1087472900723 85.53234592071968 H 0.0 **** 0.06
25099 H 86.39524896377678 131.61170948494112 85.71646477010478 H 0.0 **** 0.06
25100 H 85.85509918443393 132.3929223601544 84.21171714987376 H 0.0 **** 0.06
25101 C 129.4126143797862 0.40356644141718334 32.452080697350766 C 0.0 **** -0.24
25102 H 130.21509145752782 0.27424957894209 33.17760788728705 H 0.0 **** 0.06
25103 H 129.4133910789606 -0.4347887487466551 31.755527734416376 H 0.0 **** 0.06
25104 H 129.56559603795617 1.3323960976288731 31.902375182371713 H 0.0 **** 0.06
25105 H 128.4551295579543 0.44289820643473377 32.97236517011498 H 0.0 **** 0.06
25106 C 122.62277634515789 28.710297352891885 128.59636680283054 C 0.0 **** -0.24
25107 H 123.16025984864925 27.944189671237204 128.0378441538483 H 0.0 **** 0.06
25108 H 122.28858371965283 28.29869063077347 129.548998568432 H 0.0 **** 0.06
25109 H 121.75891891722011 29.04071908959964 128.01947089523892 H 0.0 **** 0.06
25110 H 123.28397022501704 29.55711641754737 128.77761012466377 H 0.0 **** 0.06
25111 C 29.041073842944883 52.80803228292581 97.99857390874354 C 0.0 **** -0.24
25112 H 28.720967099548517 52.05329590784203 98.71587765897937 H 0.0 **** 0.06
25113 H 29.842550376373538 53.40592797440141 98.43352817446794 H 0.0 **** 0.06
25114 H 28.198683224420805 53.454995262961404 97.75151710974384 H 0.0 **** 0.06
25115 H 29.401633287696107 52.319500281734264 97.0928645331987 H 0.0 **** 0.06
25116 C 65.77626196267575 93.61000517599756 51.87441676269947 C 0.0 **** -0.24
25117 H 66.66319919072612 92.9857471013238 51.98441807151363 H 0.0 **** 0.06
25118 H 65.63040321871273 93.85296282525242 50.82165140744519 H 0.0 **** 0.06
25119 H 65.9078218607422 94.52976724263854 52.444812081644045 H 0.0 **** 0.06
25120 H 64.90532759883902 93.07201266395083 52.24848152011003 H 0.0 **** 0.06
25121 C 32.55915621926257 34.10987213744539 121.34160301902392 C 0.0 **** -0.24
25122 H 31.783235018583127 34.34601690312648 120.61302218815212 H 0.0 **** 0.06
25123 H 33.498348115408795 34.56950923756598 121.0331984197141 H 0.0 **** 0.06
25124 H 32.68597250717671 33.02868896140831 121.39978072720272 H 0.0 **** 0.06
25125 H 32.26896478709185 34.495230746412005 122.31817747015549 H 0.0 **** 0.06
25126 C 65.00969439831641 27.524291538227118 26.58558074994187 C 0.0 **** -0.24
25127 H 65.47320329220155 26.72282470731819 27.160680287461304 H 0.0 **** 0.06
25128 H 64.26835560654162 27.10291298216046 25.906442337951148 H 0.0 **** 0.06
25129 H 65.77492039471252 28.046950030067855 26.010252658045886 H 0.0 **** 0.06
25130 H 64.52416139380817 28.22566289931325 27.264592536217236 H 0.0 **** 0.06
25131 C 38.52271903511871 126.26046182432265 39.696301241482786 C 0.0 **** -0.24
25132 H 37.48570208321564 125.9255531773994 39.695263546950855 H 0.0 **** 0.06
25133 H 39.1590502993858 125.4734493032187 39.291883308699084 H 0.0 **** 0.06
25134 H 38.82954818387191 126.48760377476223 40.71730392191864 H 0.0 **** 0.06
25135 H 38.616575574001445 127.15524104191007 39.08075418836279 H 0.0 **** 0.06
25136 C 131.7817593408011 109.89846272525946 119.18352134264312 C 0.0 **** -0.24
25137 H 131.25269734402963 110.7100486726327 119.6826152171267 H 0.0 **** 0.06
25138 H 131.8758654229557 110.12617195925108 118.12094772674934 H 0.0 **** 0.06
25139 H 131.22436544189554 108.969648692134 119.30830769885543 H 0.0 **** 0.06
25140 H 132.77412193055562 109.78843780184229 119.62002568069386 H 0.0 **** 0.06
25141 C 131.73364343539401 117.0005812187494 59.60399187880921 C 0.0 **** -0.24
25142 H 132.66605608122936 116.56112756149935 59.2483456440101 H 0.0 **** 0.06
25143 H 131.6551928622342 116.86260162515094 60.68198917130948 H 0.0 **** 0.06
25144 H 130.89277900886088 116.51216536766344 59.1122948171365 H 0.0 **** 0.06
25145 H 131.72276106520374 118.06544257316352 59.37107571189739 H 0.0 **** 0.06
25146 C 60.01677206056763 37.36404509427986 5.083707966523548 C 0.0 **** -0.24
25147 H 59.073204542403175 36.89518130649479 4.804652155919257 H 0.0 **** 0.06
25148 H 60.551954065088296 36.71676141171487 5.77838207136972 H 0.0 **** 0.06
25149 H 59.81860556593 38.32445758994771 5.559656434776514 H 0.0 **** 0.06
25150 H 60.62243868389061 37.51898110361162 4.190535609674356 H 0.0 **** 0.06
25151 C 57.38880889605667 20.329737968415714 111.16667630697654 C 0.0 **** -0.24
25152 H 58.1961072012256 20.617029609637626 111.839845668849 H 0.0 **** 0.06
25153 H 56.682236910202505 21.155220084858726 111.07390012309475 H 0.0 **** 0.06
25154 H 56.87595320468989 19.45493463706908 111.56574798977189 H 0.0 **** 0.06
25155 H 57.801165246047475 20.09221166255017 110.1858880676611 H 0.0 **** 0.06
25156 C 36.73903566790919 118.24281204775662 48.942581913744476 C 0.0 **** -0.24
25157 H 36.235043923780296 119.16433991888255 48.65066620347932 H 0.0 **** 0.06
25158 H 36.245781502622435 117.82149541903837 49.81917859458294 H 0.0 **** 0.06
25159 H 37.78088069498037 118.45795269770416 49.180175065192756 H 0.0 **** 0.06
25160 H 36.694078157900236 117.52753082224126 48.12123870926223 H 0.0 **** 0.06
25161 C 16.657072917832977 72.05065609858704 89.44697616280936 C 0.0 **** -0.24
25162 H 15.913119507972283 72.76831228659395 89.09966502150155 H 0.0 **** 0.06
25163 H 17.484817980662342 72.58359187687496 89.91454606689013 H 0.0 **** 0.06
25164 H 17.027209325445824 71.47399136516164 88.60032050287705 H 0.0 **** 0.06
25165 H 16.20087619974271 71.37829093038641 90.17273000643246 H 0.0 **** 0.06
25166 C 26.117619503774826 114.3855716188518 75.66027604400591 C 0.0 **** -0.24
25167 H 26.538931712674717 114.11743667447575 76.62942451633535 H 0.0 **** 0.06
25168 H 26.039941870887453 115.47076106848522 75.58649832080818 H 0.0 **** 0.06
25169 H 25.12773241445857 113.94274553475708 75.55953092169952 H 0.0 **** 0.06
25170 H 26.766135381930532 114.01272278023913 74.86737506062167 H 0.0 **** 0.06
25171 C 87.67632090659988 18.795042794054304 68.91483485263747 C 0.0 **** -0.24
25172 H 87.56186193398383 17.95889548100498 68.22517488879136 H 0.0 **** 0.06
25173 H 87.79301568874115 19.719361143928573 68.34862287837426 H 0.0 **** 0.06
25174 H 88.55771956882641 18.63478694892926 69.5353084602861 H 0.0 **** 0.06
25175 H 86.79247089570127 18.86574395233589 69.55003532407007 H 0.0 **** 0.06
25176 C 3.924225023768088 51.447713221095796 73.96399046521026 C 0.0 **** -0.24
25177 H 2.948577954369142 51.06449810986827 73.6647079130667 H 0.0 **** 0.06
25178 H 4.008924915466764 52.49388289244294 73.66920914070573 H 0.0 **** 0.06
25179 H 4.707593670300696 50.868062705656556 73.47435900628477 H 0.0 **** 0.06
25180 H 4.031558237862811 51.36337213110134 75.0448813804037 H 0.0 **** 0.06
25181 C 39.31945737396106 5.59577151694117 116.03577591924065 C 0.0 **** -0.24
25182 H 39.650022939632436 4.815353192221835 115.35082141078317 H 0.0 **** 0.06
25183 H 40.18180219934165 6.164941873812381 116.38095776391378 H 0.0 **** 0.06
25184 H 38.81748206017116 5.141125645733183 116.88991231581304 H 0.0 **** 0.06
25185 H 38.62667378740454 6.261252991447066 115.52022340531312 H 0.0 **** 0.06
25186 C 1.2434993785186066 97.74544777290224 69.03696221671373 C 0.0 **** -0.24
25187 H 2.017029476822273 97.04813102160107 68.71323909863673 H 0.0 **** 0.06
25188 H 0.4247181437633287 97.19150335817056 69.49703174927396 H 0.0 **** 0.06
25189 H 0.870252646872018 98.29832666182209 68.17601054188646 H 0.0 **** 0.06
25190 H 1.6642446690114525 98.44186624216388 69.76187238429151 H 0.0 **** 0.06
25191 C 88.40176223605106 51.575580828410125 99.58009246191853 C 0.0 **** -0.24
25192 H 87.51508872645222 51.61079829510989 98.9465895735616 H 0.0 **** 0.06
25193 H 88.58662532034468 50.54674468640887 99.88975666149372 H 0.0 **** 0.06
25194 H 88.24307366823665 52.197769199712596 100.46152520631438 H 0.0 **** 0.06
25195 H 89.26068521888163 51.94771815690973 99.02262665202633 H 0.0 **** 0.06
25196 C 75.33016315008047 118.73766881164741 52.35427342949467 C 0.0 **** -0.24
25197 H 75.0250483527844 117.90515900365844 52.98879488189732 H 0.0 **** 0.06
25198 H 74.44681620827753 119.20902666947494 51.92420833996033 H 0.0 **** 0.06
25199 H 75.97200611557265 118.36787927012199 51.554101944626325 H 0.0 **** 0.06
25200 H 75.87773846414117 119.4670413784921 52.95160836113757 H 0.0 **** 0.06
25201 C 73.53247962730514 61.580997981701955 49.07442198597602 C 0.0 **** -0.24
25202 H 73.56928317314254 62.28261630148367 49.908060586425876 H 0.0 **** 0.06
25203 H 73.17670445723495 60.61352218985883 49.42938776576614 H 0.0 **** 0.06
25204 H 74.53117182208672 61.46808825614005 48.65015031559534 H 0.0 **** 0.06
25205 H 72.8549642353968 61.96012727469571 48.31000986680047 H 0.0 **** 0.06
25206 C 19.302346465268187 89.36603501779007 14.017249240703492 C 0.0 **** -0.24
25207 H 20.257347067797866 88.86712580454582 13.858175604644678 H 0.0 **** 0.06
25208 H 19.352486088025728 90.38121592278124 13.621914104172923 H 0.0 **** 0.06
25209 H 19.084833209770466 89.40209240237118 15.085211767846346 H 0.0 **** 0.06
25210 H 18.514578956086524 88.81478752041535 13.50459577962473 H 0.0 **** 0.06
25211 C 48.50068390790875 41.12262270156407 83.56339418562332 C 0.0 **** -0.24
25212 H 47.549813509839595 41.62334850896275 83.37904058743055 H 0.0 **** 0.06
25213 H 48.63364899650112 40.31891783147745 82.83779931114914 H 0.0 **** 0.06
25214 H 48.50351208418738 40.70738063809932 84.57108118121664 H 0.0 **** 0.06
25215 H 49.31447197446593 41.84118268634842 83.46278792046836 H 0.0 **** 0.06
25216 C 11.654303142447503 95.4362188696348 98.13584501555154 C 0.0 **** -0.24
25217 H 10.876549340560445 95.154633204656 97.4262249886791 H 0.0 **** 0.06
25218 H 11.607717032435616 94.77878339356067 99.0053417080294 H 0.0 **** 0.06
25219 H 11.501821451559977 96.46855819227669 98.45143167622133 H 0.0 **** 0.06
25220 H 12.63016870416061 95.34146802492306 97.66019838384265 H 0.0 **** 0.06
25221 C 1.9654530249009667 67.21167244975811 108.13916838110279 C 0.0 **** -0.24
25222 H 1.3824515115477425 66.47768722971642 108.6960813234048 H 0.0 **** 0.06
25223 H 3.028132433148869 67.00176119739155 108.26488573094065 H 0.0 **** 0.06
25224 H 1.7451159332140094 68.21049521714497 108.51551621853619 H 0.0 **** 0.06
25225 H 1.7058318839496565 67.15640123850642 107.08238175221294 H 0.0 **** 0.06
25226 C 17.713050489211902 107.99608741849254 106.3656231439131 C 0.0 **** -0.24
25227 H 17.87035456655142 107.59023033258792 107.36490714343846 H 0.0 **** 0.06
25228 H 18.66066681828169 108.01691036092686 105.82806409941821 H 0.0 **** 0.06
25229 H 17.315768553206574 109.00839530111475 106.4422840421389 H 0.0 **** 0.06
25230 H 17.00300070008217 107.36852269825587 105.82691924963694 H 0.0 **** 0.06
25231 C 0.7395671899018907 30.303075300033242 61.16416269384014 C 0.0 **** -0.24
25232 H 1.2141103712592383 30.302313830094192 60.18208666650702 H 0.0 **** 0.06
25233 H 1.1820493164269124 29.522046435671797 61.78179405944596 H 0.0 **** 0.06
25234 H -0.3280776123915814 30.116889596224695 61.05082475660231 H 0.0 **** 0.06
25235 H 0.8905711286862754 31.27253797797229 61.63956990329784 H 0.0 **** 0.06
25236 C 93.38303262501705 39.76721047422333 136.1696893882807 C 0.0 **** -0.24
25237 H 94.39878273857984 39.38380158199044 136.26318463796167 H 0.0 **** 0.06
25238 H 93.1167880141531 39.8346374878559 135.11365502116826 H 0.0 **** 0.06
25239 H 93.32550837948914 40.75681325001793 136.62223036692563 H 0.0 **** 0.06
25240 H 92.69248868446152 39.09454392598977 136.67652146618445 H 0.0 **** 0.06
25241 C 134.8957837253737 23.075257723951125 68.6240019258999 C 0.0 **** -0.24
25242 H 134.2330655322483 22.337358555375886 69.07584422555834 H 0.0 **** 0.06
25243 H 134.57548703658784 23.27149099759022 67.59981850212426 H 0.0 **** 0.06
25244 H 135.91604026879457 22.691390791808743 68.61809975869318 H 0.0 **** 0.06
25245 H 134.85722920633987 23.99914671833885 69.20099042748646 H 0.0 **** 0.06
25246 C 115.14272160874859 61.562422737962336 112.62344417808214 C 0.0 **** -0.24
25247 H 114.52171670584843 60.77557390929785 113.05044282804789 H 0.0 **** 0.06
25248 H 114.9281784420352 62.50616750928678 113.12531180903011 H 0.0 **** 0.06
25249 H 114.92641943956349 61.65969393395548 111.55955473448802 H 0.0 **** 0.06
25250 H 116.19356789353682 61.30907109736573 112.75903929526868 H 0.0 **** 0.06
25251 C 98.30706160305857 75.34757178991272 32.77175096240302 C 0.0 **** -0.24
25252 H 98.36995700127761 74.2625019204317 32.854101491331335 H 0.0 **** 0.06
25253 H 97.27271417327353 75.63884353637032 32.58636684383583 H 0.0 **** 0.06
25254 H 98.93310217214122 75.68676606080483 31.94680218380256 H 0.0 **** 0.06
25255 H 98.65196579368563 75.8028180861818 33.700886601419825 H 0.0 **** 0.06
25256 C 7.291106081890746 106.3351508046776 81.95708311248384 C 0.0 **** -0.24
25257 H 7.81431120043834 105.7116381626746 81.23201452453517 H 0.0 **** 0.06
25258 H 7.351518547613068 107.3794293993584 81.64828272637783 H 0.0 **** 0.06
25259 H 7.753155476399343 106.21732661783793 82.93711977909584 H 0.0 **** 0.06
25260 H 6.24527165363412 106.03151893810198 82.00879505359572 H 0.0 **** 0.06
25261 C 37.18002043511564 63.079050832993005 73.30022350385673 C 0.0 **** -0.24
25262 H 37.57776324092055 63.27625230471838 74.29611724237714 H 0.0 **** 0.06
25263 H 36.12670898533497 63.35759857138635 73.26787835066881 H 0.0 **** 0.06
25264 H 37.28344713931989 62.01821205688174 73.07204797592237 H 0.0 **** 0.06
25265 H 37.73415013325956 63.66469102379935 72.56617177421748 H 0.0 **** 0.06
25266 C 42.37858814097237 68.67496549478847 42.15961206117342 C 0.0 **** -0.24
25267 H 41.96797484202966 69.31497158915883 42.94014453912809 H 0.0 **** 0.06
25268 H 43.4669544590071 68.71822862382558 42.19082244608009 H 0.0 **** 0.06
25269 H 42.02774586426929 69.01814565361181 41.186264669441286 H 0.0 **** 0.06
25270 H 42.05090881443911 67.64756846995834 42.322801341539964 H 0.0 **** 0.06
25271 C 117.58806199591862 8.487560471310843 85.57732056997668 C 0.0 **** -0.24
25272 H 117.51121977979287 9.384353981402015 84.96244355687536 H 0.0 **** 0.06
25273 H 118.48950068579094 7.937917652222751 85.3058852473741 H 0.0 **** 0.06
25274 H 116.71379479557996 7.8574817802955295 85.41029117088694 H 0.0 **** 0.06
25275 H 117.63723949831663 8.769902489832589 86.62833558311402 H 0.0 **** 0.06
25276 C 7.034340747292049 52.0521042967945 18.313540352225743 C 0.0 **** -0.24
25277 H 6.15410856376576 52.283444684655834 18.914016019302835 H 0.0 **** 0.06
25278 H 6.8164874304801515 51.20502726866593 17.66153606112067 H 0.0 **** 0.06
25279 H 7.866689874852909 51.80103447194483 18.97042078205243 H 0.0 **** 0.06
25280 H 7.2979432302913665 52.919089848798734 17.707544594538945 H 0.0 **** 0.06
25281 C 35.648893679716934 80.29321937593491 44.87250342313979 C 0.0 **** -0.24
25282 H 34.838222987802084 80.3856659109695 45.59502865740711 H 0.0 **** 0.06
25283 H 35.28262667929911 80.55853987878574 43.87977099799423 H 0.0 **** 0.06
25284 H 36.01332981660556 79.26591924175911 44.86313299071304 H 0.0 **** 0.06
25285 H 36.46161825204092 80.96441639269916 45.151654700145 H 0.0 **** 0.06
25286 C 69.22917269519162 37.921348546621005 32.97158737090754 C 0.0 **** -0.24
25287 H 69.1337410740107 37.69179962067551 34.033334141394505 H 0.0 **** 0.06
25288 H 68.56534444567707 38.74921345269189 32.718581631657145 H 0.0 **** 0.06
25289 H 68.95598494969737 37.04486253544977 32.38484999843837 H 0.0 **** 0.06
25290 H 70.25880530392983 38.20033891619428 32.75076829696749 H 0.0 **** 0.06
25291 C 118.8918725569917 112.84813585215136 6.395327441986392 C 0.0 **** -0.24
25292 H 119.6203785905156 113.63706725102134 6.581303922138726 H 0.0 **** 0.06
25293 H 117.93418715681071 113.29471476032384 6.127799840032811 H 0.0 **** 0.06
25294 H 118.77262481627895 112.2450314051647 7.295744618735469 H 0.0 **** 0.06
25295 H 119.24068660533118 112.21609006808094 5.578634139602446 H 0.0 **** 0.06
25296 C 14.944345934407039 17.846018409300882 126.98432586385184 C 0.0 **** -0.24
25297 H 14.15163454012199 17.995915077768473 126.25127695586536 H 0.0 **** 0.06
25298 H 14.55076135234384 18.023846465196584 127.98564123392794 H 0.0 **** 0.06
25299 H 15.759036811062984 18.54199177929911 126.7851177042782 H 0.0 **** 0.06
25300 H 15.314512780858507 16.823111356922084 126.91471455208034 H 0.0 **** 0.06
25301 C 62.036008251920464 51.68823837072216 44.316141956823174 C 0.0 **** -0.24
25302 H 60.988196297750676 51.4281037597911 44.469576639992965 H 0.0 **** 0.06
25303 H 62.34890908043843 52.40052273445136 45.080113262492716 H 0.0 **** 0.06
25304 H 62.157220910698925 52.13508201126518 43.3290136238806 H 0.0 **** 0.06
25305 H 62.647251127966115 50.787704504192845 44.38509136292021 H 0.0 **** 0.06
25306 C 21.881059785141865 20.655366003985307 108.7051998819016 C 0.0 **** -0.24
25307 H 22.35422551812654 21.43078454094433 109.30715861491298 H 0.0 **** 0.06
25308 H 21.989034996356928 20.8999884079131 107.64860048488536 H 0.0 **** 0.06
25309 H 20.822381351699967 20.59501975011142 108.95867846764418 H 0.0 **** 0.06
25310 H 22.357524516500206 19.69705731940735 108.90775063561398 H 0.0 **** 0.06
25311 C 47.20287828259879 56.547738326566346 135.59919438993674 C 0.0 **** -0.24
25312 H 46.59612708334373 55.87010116954667 134.99865969331074 H 0.0 **** 0.06
25313 H 47.79969186039685 57.18009856164868 134.94138425038562 H 0.0 **** 0.06
25314 H 47.86187898029834 55.96909740087801 136.24488140764845 H 0.0 **** 0.06
25315 H 46.55162212917247 57.17354677753589 136.21058079386535 H 0.0 **** 0.06
25316 C 35.73902381531602 82.03806604695473 29.449229560652647 C 0.0 **** -0.24
25317 H 36.18432040974187 83.01871686399048 29.61699123743015 H 0.0 **** 0.06
25318 H 34.79439007309591 82.15449378196917 28.91782035312552 H 0.0 **** 0.06
25319 H 35.55972201548447 81.55190094627505 30.40853892301304 H 0.0 **** 0.06
25320 H 36.418303816213495 81.4269188115635 28.854806473740233 H 0.0 **** 0.06
25321 C 89.41095114611136 83.3311945932614 92.59212617312363 C 0.0 **** -0.24
25322 H 89.65013770986923 82.29331208089924 92.35949393153749 H 0.0 **** 0.06
25323 H 90.32862940989878 83.87533655561616 92.81584966065242 H 0.0 **** 0.06
25324 H 88.74769543029652 83.36619671038028 93.45639335898534 H 0.0 **** 0.06
25325 H 88.91581403982406 83.7894473988296 91.73611235000112 H 0.0 **** 0.06
25326 C 56.62246224860657 43.244349356924204 113.38607105409886 C 0.0 **** -0.24
25327 H 57.66553151773351 43.35458390315134 113.68051433905478 H 0.0 **** 0.06
25328 H 56.11028110577098 42.599627073061015 114.1010569045742 H 0.0 **** 0.06
25329 H 56.5702659954508 42.79917281968358 112.39255132183655 H 0.0 **** 0.06
25330 H 56.14334217024651 44.22358321045162 113.37143894120291 H 0.0 **** 0.06
25331 C 32.5521874871385 102.75087344587332 3.030249120905296 C 0.0 **** -0.24
25332 H 31.600435322103294 102.3180769516686 2.7243749507078405 H 0.0 **** 0.06
25333 H 32.66945806589041 102.64630394028855 4.109095224196949 H 0.0 **** 0.06
25334 H 32.572329294599 103.8078041336846 2.763601574349991 H 0.0 **** 0.06
25335 H 33.36657241677085 102.23271963878994 2.52401115817554 H 0.0 **** 0.06
25336 C 18.506456301790195 125.68004806284958 56.723720667839814 C 0.0 **** -0.24
25337 H 17.878827303946366 125.06293799472738 56.08111032893197 H 0.0 **** 0.06
25338 H 17.911247976706136 126.06289782714768 57.552356378461354 H 0.0 **** 0.06
25339 H 18.907624866072155 126.51347480400214 56.14749789208986 H 0.0 **** 0.06
25340 H 19.328253964869702 125.07915437177367 57.11392889677228 H 0.0 **** 0.06
25341 C 99.0866409862193 8.001193656234587 24.13559767772449 C 0.0 **** -0.24
25342 H 98.18781987395816 7.465810275532753 23.830984367659198 H 0.0 **** 0.06
25343 H 99.89762023660015 7.7716855687515505 23.44498728243741 H 0.0 **** 0.06
25344 H 99.36878920970936 7.693331616720922 25.14273939323823 H 0.0 **** 0.06
25345 H 98.89182759942726 9.073922196526468 24.12499966558829 H 0.0 **** 0.06
25346 C 92.44664725103797 19.74478751586156 37.71739952985109 C 0.0 **** -0.24
25347 H 92.99921272973296 20.668980528369616 37.889924256515016 H 0.0 **** 0.06
25348 H 91.39952074964435 19.89353376151587 37.98131753466673 H 0.0 **** 0.06
25349 H 92.86747911327839 18.949757378225684 38.33335058911022 H 0.0 **** 0.06
25350 H 92.521544634143 19.467034807130176 36.666274963378605 H 0.0 **** 0.06
25351 C 35.873643222784324 60.88761326229559 128.97201434703126 C 0.0 **** -0.24
25352 H 35.07115799116487 60.15261291183842 128.9056816767795 H 0.0 **** 0.06
25353 H 36.22857187455122 61.13046121149998 127.9704123352243 H 0.0 **** 0.06
25354 H 36.69531053085028 60.47500337421664 129.559068063188 H 0.0 **** 0.06
25355 H 35.50012555573643 61.7905118834794 129.4553803648353 H 0.0 **** 0.06
25356 C 103.5447262075682 107.56659906544888 32.592456771669376 C 0.0 **** -0.24
25357 H 103.22768075247069 108.34481386759664 31.8988719383849 H 0.0 **** 0.06
25358 H 102.69576099578907 107.25821833582184 33.20452095624441 H 0.0 **** 0.06
25359 H 104.3346238979313 107.95275822320701 33.23565949523163 H 0.0 **** 0.06
25360 H 103.9181791191985 106.70998998828311 32.03151304510904 H 0.0 **** 0.06
25361 C 49.14787953111377 22.468622407604386 46.937147205522606 C 0.0 **** -0.24
25362 H 50.03441435233702 21.866776643949663 46.73917065430375 H 0.0 **** 0.06
25363 H 49.413215161820574 23.52603332776266 46.91252489157938 H 0.0 **** 0.06
25364 H 48.750552458684126 22.217331685103233 47.92047229154845 H 0.0 **** 0.06
25365 H 48.39287250564695 22.264928231223422 46.17798574424101 H 0.0 **** 0.06
25366 C 67.92497918698325 56.37404214410245 41.19972489104976 C 0.0 **** -0.24
25367 H 67.59842467698002 56.187425815580454 40.17677203279573 H 0.0 **** 0.06
25368 H 68.83061378830763 56.98064555569442 41.18762776819417 H 0.0 **** 0.06
25369 H 68.12885328421942 55.42442180743461 41.694959838950396 H 0.0 **** 0.06
25370 H 67.1401579987554 56.90484020898994 41.739937112655014 H 0.0 **** 0.06
25371 C 90.73347621933712 93.31504324509567 135.94625174312938 C 0.0 **** -0.24
25372 H 90.05115906901945 93.04782786820776 136.75291666148155 H 0.0 **** 0.06
25373 H 91.19425894439215 94.27914538376875 136.1643032660129 H 0.0 **** 0.06
25374 H 90.17983909582796 93.37996789878109 135.00915685864865 H 0.0 **** 0.06
25375 H 91.50779590460692 92.55344153247106 135.85815018675186 H 0.0 **** 0.06
25376 C 3.9660182455876054 67.74429861554162 73.38754271886245 C 0.0 **** -0.24
25377 H 4.294620769328844 68.17590947040377 74.3333659305716 H 0.0 **** 0.06
25378 H 3.9731304390399202 68.51345705264355 72.61569704472734 H 0.0 **** 0.06
25379 H 2.9564915753427385 67.3501164566324 73.50034497909103 H 0.0 **** 0.06
25380 H 4.642443456098846 66.93776974496366 73.10344025925006 H 0.0 **** 0.06
25381 C 57.32810203920785 61.11727830577381 20.792511843445766 C 0.0 **** -0.24
25382 H 57.428306893085406 62.16411055299595 20.506453671157175 H 0.0 **** 0.06
25383 H 57.90928247379877 60.49682612511175 20.108941405408927 H 0.0 **** 0.06
25384 H 56.279022905022956 60.82654534985491 20.74472746582495 H 0.0 **** 0.06
25385 H 57.697045501584896 60.981609662778425 21.80926294979176 H 0.0 **** 0.06
25386 C 135.31174306072518 69.48481595770721 129.03148100167158 C 0.0 **** -0.24
25387 H 135.7217376563193 68.71144370627252 129.68165320364753 H 0.0 **** 0.06
25388 H 134.41985727636145 69.10440592468635 128.5323446754056 H 0.0 **** 0.06
25389 H 136.05584022228123 69.76368701254711 128.28450344371936 H 0.0 **** 0.06
25390 H 135.0498175683487 70.35837695112798 129.627736189338 H 0.0 **** 0.06
25391 C 17.62299249769447 78.11097586710517 0.27928553378404786 C 0.0 **** -0.24
25392 H 18.111434715559596 78.35808647760749 -0.6630745822807285 H 0.0 **** 0.06
25393 H 17.317171347244766 79.02904345234634 0.7819051079785027 H 0.0 **** 0.06
25394 H 18.317419139692845 77.5617572072947 0.9144056206993696 H 0.0 **** 0.06
25395 H 16.745058572339815 77.49448697699808 0.08251510969870424 H 0.0 **** 0.06
25396 C 31.531628505296965 126.95904204377521 112.49106541111797 C 0.0 **** -0.24
25397 H 31.507799109674323 127.07926378007502 113.57448730000434 H 0.0 **** 0.06
25398 H 31.73141154719667 127.9231504444393 112.02357125756672 H 0.0 **** 0.06
25399 H 30.568987554375724 126.5802542699011 112.14744310404052 H 0.0 **** 0.06
25400 H 32.31783567207941 126.25326523186521 112.22187686669673 H 0.0 **** 0.06
25401 C 93.58528116537695 5.5219291339601 116.5534440949362 C 0.0 **** -0.24
25402 H 93.59410023687371 4.588033960931114 115.99289078310176 H 0.0 **** 0.06
25403 H 94.24351369975437 6.2442546446363565 116.06896403828588 H 0.0 **** 0.06
25404 H 93.93336835760181 5.338525606082953 117.57070295315137 H 0.0 **** 0.06
25405 H 92.5694359152136 5.917717963627609 116.5840179042084 H 0.0 **** 0.06
25406 C 121.59866500181042 84.08911741191275 70.97948891908317 C 0.0 **** -0.24
25407 H 121.85779672541472 83.04997356326811 70.77628980305707 H 0.0 **** 0.06
25408 H 120.62118321528122 84.30909402860237 70.55123120677325 H 0.0 **** 0.06
25409 H 122.34776596648605 84.74336101211483 70.53379271578478 H 0.0 **** 0.06
25410 H 121.56990704714924 84.25169913588076 72.05737957751353 H 0.0 **** 0.06
25411 C 126.11781333060118 116.61126012514879 101.4458047308604 C 0.0 **** -0.24
25412 H 125.60013996367505 115.96744507447448 102.1563689392899 H 0.0 **** 0.06
25413 H 127.11436060943703 116.21170681998683 101.25395894251687 H 0.0 **** 0.06
25414 H 126.20357179424602 117.61603480838991 101.86123035439135 H 0.0 **** 0.06
25415 H 125.55546331410804 116.64974020276316 100.51332751178921 H 0.0 **** 0.06
25416 C 74.30705537026954 79.861431637504 64.18989171278952 C 0.0 **** -0.24
25417 H 75.35399006546457 80.03462967509971 63.94395437543892 H 0.0 **** 0.06
25418 H 73.73673905244401 80.77407432969589 64.01455571034438 H 0.0 **** 0.06
25419 H 74.22208331684537 79.57509335371992 65.23852855833161 H 0.0 **** 0.06
25420 H 73.91413563598137 79.06164546757184 63.56198229539814 H 0.0 **** 0.06
25421 C 8.06240544384184 134.0940752599312 76.2240252483364 C 0.0 **** -0.24
25422 H 7.5213715215653565 134.98194518831968 75.89930803059644 H 0.0 **** 0.06
25423 H 7.625972530543777 133.21099880249596 75.75809788150585 H 0.0 **** 0.06
25424 H 7.994654127761237 134.00382174282822 77.30807834418297 H 0.0 **** 0.06
25425 H 9.109639541760657 134.179571697537 75.93200774906666 H 0.0 **** 0.06
25426 C 41.02272204174471 40.62506634069592 4.937320311927152 C 0.0 **** -0.24
25427 H 40.74545295177729 39.57851999887987 4.808453334906773 H 0.0 **** 0.06
25428 H 41.436943263417454 41.00857879395184 4.00536752471001 H 0.0 **** 0.06
25429 H 41.76824590476545 40.7076935857591 5.728324724065146 H 0.0 **** 0.06
25430 H 40.13964717643817 41.20381236927082 5.2085082323641245 H 0.0 **** 0.06
25431 C 84.951180911812 132.81592054055426 18.30476071041354 C 0.0 **** -0.24
25432 H 84.6941169592817 131.7681286873011 18.144562431936095 H 0.0 **** 0.06
25433 H 85.19289819743676 132.97405446587334 19.355759032978703 H 0.0 **** 0.06
25434 H 84.10429069795788 133.44312912280657 18.02758677381197 H 0.0 **** 0.06
25435 H 85.8134701891866 133.07565476210232 17.69034357429021 H 0.0 **** 0.06
25436 C 9.9369632748909 25.093738939110978 12.642008206916614 C 0.0 **** -0.24
25437 H 10.737774585940087 24.753931209581438 11.984182182947876 H 0.0 **** 0.06
25438 H 10.308747789208951 25.89179915003521 13.284434252551293 H 0.0 **** 0.06
25439 H 9.593790084788338 24.261500332375974 13.25563926110192 H 0.0 **** 0.06
25440 H 9.107941492111365 25.467552374396163 12.040198011350284 H 0.0 **** 0.06
25441 C 92.3884893586318 1.2474137001301528 130.63622549617781 C 0.0 **** -0.24
25442 H 93.12329235032325 2.0117894764877633 130.3809798187047 H 0.0 **** 0.06
25443 H 92.17505061613161 0.6399909429500781 129.7568089001566 H 0.0 **** 0.06
25444 H 91.47076044577585 1.7273099010703845 130.97835618635713 H 0.0 **** 0.06
25445 H 92.78520422852458 0.6136659154786344 131.429265918481 H 0.0 **** 0.06
25446 C 67.34415557041896 47.230631554550484 125.77505331677031 C 0.0 **** -0.24
25447 H 67.65540987888275 47.65333842058442 126.73014530548 H 0.0 **** 0.06
25448 H 66.92119925454476 48.017035116047765 125.1505683944759 H 0.0 **** 0.06
25449 H 66.59235977959659 46.459870452793325 125.94737428096704 H 0.0 **** 0.06
25450 H 68.20623381281304 46.791686168167445 125.2737469534191 H 0.0 **** 0.06
25451 C 39.62879482041194 129.53478711314088 79.61080020229745 C 0.0 **** -0.24
25452 H 40.58805758511312 129.6451554516829 79.10468276596833 H 0.0 **** 0.06
25453 H 38.95089168396217 128.95727358137995 78.98075051398955 H 0.0 **** 0.06
25454 H 39.20147968107034 130.5197198414923 79.79777702770939 H 0.0 **** 0.06
25455 H 39.77637356590199 129.0158324836633 80.55716144566753 H 0.0 **** 0.06
25456 C 95.67861655510818 134.57665429101849 49.62508529128604 C 0.0 **** -0.24
25457 H 95.91280193644278 135.63293138870446 49.76066184152843 H 0.0 **** 0.06
25458 H 96.20873553797527 133.98779457168516 50.372851366167026 H 0.0 **** 0.06
25459 H 95.98814528841609 134.26107409543295 48.62817746342833 H 0.0 **** 0.06
25460 H 94.60472081590092 134.42519549249718 49.73696139946432 H 0.0 **** 0.06
25461 C 6.38862317277443 67.3794275376282 8.15540480448874 C 0.0 **** -0.24
25462 H 5.907176823140617 67.1147329571271 7.2146204514386625 H 0.0 **** 0.06
25463 H 6.682334377985796 66.4709272482736 8.681524590961487 H 0.0 **** 0.06
25464 H 5.692046936549161 67.94807188373522 8.771782314508584 H 0.0 **** 0.06
25465 H 7.272261864768495 67.98505647835907 7.954312021897266 H 0.0 **** 0.06
25466 C 104.66016212483999 120.9308427763412 122.29507162855839 C 0.0 **** -0.24
25467 H 105.56835875947866 121.50184197541716 122.10351269764931 H 0.0 **** 0.06
25468 H 103.79092741366344 121.57362629819642 122.15385743103397 H 0.0 **** 0.06
25469 H 104.67456447188749 120.55882858199169 123.31992435533228 H 0.0 **** 0.06
25470 H 104.60658821563004 120.09000624203685 121.60403487953758 H 0.0 **** 0.06
25471 C 117.07747283337852 93.3559559385963 100.46713505164495 C 0.0 **** -0.24
25472 H 117.0333170285599 93.38033701956843 101.55666107683165 H 0.0 **** 0.06
25473 H 117.88603387572542 94.00110400376688 100.12263381381156 H 0.0 **** 0.06
25474 H 116.12990683424078 93.70846440492413 100.0579888832551 H 0.0 **** 0.06
25475 H 117.259183712381 92.33434021633195 100.13364813079193 H 0.0 **** 0.06
25476 C 9.85884929872833 63.59506120675371 70.75559617390547 C 0.0 **** -0.24
25477 H 8.969764010099908 64.18162747697409 70.52492670196716 H 0.0 **** 0.06
25478 H 10.484633133142864 63.52039278915095 69.86611188853234 H 0.0 **** 0.06
25479 H 9.562815804853187 62.59702598941459 71.07672057095368 H 0.0 **** 0.06
25480 H 10.418337752647744 64.08323410029686 71.55371268691505 H 0.0 **** 0.06
25481 C 129.72475627475185 25.841613818464623 101.9400051475092 C 0.0 **** -0.24
25482 H 130.53192850008648 25.42547088539439 101.33649693892181 H 0.0 **** 0.06
25483 H 129.79796285949266 26.929809602537063 101.94262426373038 H 0.0 **** 0.06
25484 H 129.80642945143305 25.46990283631186 102.96094660331227 H 0.0 **** 0.06
25485 H 128.76540425190603 25.54241245049502 101.51931257337017 H 0.0 **** 0.06
25486 C 29.05039833050853 14.171222230239778 71.42644756497536 C 0.0 **** -0.24
25487 H 29.16441507941223 15.228740556027446 71.66628765529656 H 0.0 **** 0.06
25488 H 28.66517519601239 14.068475382437526 70.41150553303795 H 0.0 **** 0.06
25489 H 28.352495665179767 13.7140160798223 72.1279448723872 H 0.0 **** 0.06
25490 H 30.018077354334594 13.674975026405662 71.50154144409196 H 0.0 **** 0.06
25491 C 78.25105078554166 100.08925867015823 5.302956393864321 C 0.0 **** -0.24
25492 H 77.81212145864167 99.27095498196975 4.731887049977956 H 0.0 **** 0.06
25493 H 78.62869827748345 99.70850591216309 6.252934215253191 H 0.0 **** 0.06
25494 H 77.49301414315798 100.84961256878005 5.491069289308484 H 0.0 **** 0.06
25495 H 79.07261702434324 100.52852774478437 4.735143254800619 H 0.0 **** 0.06
25496 C 56.535696510431706 30.02323358247611 29.57956570364928 C 0.0 **** -0.24
25497 H 55.91458944972112 30.90487549987131 29.42125394884289 H 0.0 **** 0.06
25498 H 56.2186370144027 29.22929341440647 28.903288132856687 H 0.0 **** 0.06
25499 H 56.432210996401295 29.68647700303373 30.61165090972065 H 0.0 **** 0.06
25500 H 57.578450175865555 30.27301511427399 29.382578238909332 H 0.0 **** 0.06
25501 C 56.84457415259371 27.99323921029005 99.44698399943641 C 0.0 **** -0.24
25502 H 56.810248160116885 28.664141350705037 98.58896472374244 H 0.0 **** 0.06
25503 H 56.20863495694567 28.385586264610488 100.24102570188482 H 0.0 **** 0.06
25504 H 57.870071966486904 27.91504815434235 99.80715260650834 H 0.0 **** 0.06
25505 H 56.4881296156172 27.006137752628028 99.15019597542506 H 0.0 **** 0.06
25506 C 33.60981637723381 133.92829946211265 25.083834206339894 C 0.0 **** -0.24
25507 H 33.00444117908583 133.82152732479778 25.983208755410715 H 0.0 **** 0.06
25508 H 33.953997567474545 134.9591028798468 24.998203046411014 H 0.0 **** 0.06
25509 H 33.011431803663555 133.67156584317104 24.209604934439383 H 0.0 **** 0.06
25510 H 34.47021253779897 133.26151548809835 25.14288209443034 H 0.0 **** 0.06
25511 C 133.4640506757695 87.62445065879805 16.98376162674529 C 0.0 **** -0.24
25512 H 134.2188112948727 88.1486000813542 16.397392410109973 H 0.0 **** 0.06
25513 H 133.745434094563 87.64215613249151 18.03689123483929 H 0.0 **** 0.06
25514 H 133.3940289434205 86.59156875570494 16.64324441064278 H 0.0 **** 0.06
25515 H 132.4994859664058 88.11516711551168 16.85682737123261 H 0.0 **** 0.06
25516 C 13.412463717594392 134.2044610478598 37.444810682346315 C 0.0 **** -0.24
25517 H 13.943396855768071 134.9685022803637 36.876149885046516 H 0.0 **** 0.06
25518 H 13.99219629889916 133.94083613076305 38.328900642375885 H 0.0 **** 0.06
25519 H 13.273467856273783 133.32034718800432 36.82277620902369 H 0.0 **** 0.06
25520 H 12.439311281510186 134.59004344637168 37.74961329912995 H 0.0 **** 0.06
25521 C 92.68049221911433 57.50465142882939 86.02154258990946 C 0.0 **** -0.24
25522 H 93.33574765096837 57.412589657062526 86.88815960230095 H 0.0 **** 0.06
25523 H 91.6552367687466 57.661624801941244 86.35707156903128 H 0.0 **** 0.06
25524 H 92.73261520954055 56.59151013307641 85.42810324334212 H 0.0 **** 0.06
25525 H 92.99817945298084 58.352055877742956 85.41434693373472 H 0.0 **** 0.06
25526 C 44.01439149832328 13.910198628344261 107.35663026637417 C 0.0 **** -0.24
25527 H 43.149824101389754 13.372401544934348 107.74586358951095 H 0.0 **** 0.06
25528 H 44.69820669565537 13.204512205817863 106.884054823839 H 0.0 **** 0.06
25529 H 44.52474512106369 14.41732166069471 108.17533989940122 H 0.0 **** 0.06
25530 H 43.684847021385394 14.645099528939156 106.6221936355812 H 0.0 **** 0.06
25531 C 10.007989144261842 119.90889849691496 40.39615959391182 C 0.0 **** -0.24
25532 H 10.864115383623869 119.51588656274731 39.84762194427358 H 0.0 **** 0.06
25533 H 10.351626478810772 120.36454740722797 41.32611906994077 H 0.0 **** 0.06
25534 H 9.318063685660746 119.09611319356407 40.62403893619543 H 0.0 **** 0.06
25535 H 9.49979983222093 120.65855662080344 39.79002729743336 H 0.0 **** 0.06
25536 C 58.596334869311875 1.3042107496441417 136.47173553523902 C 0.0 **** -0.24
25537 H 59.44947549982962 1.957452040104556 136.2856038760528 H 0.0 **** 0.06
25538 H 58.95006296465763 0.29148326924257617 136.66472657507845 H 0.0 **** 0.06
25539 H 57.94441121168313 1.3024290093226227 135.59863222206528 H 0.0 **** 0.06
25540 H 58.043295193672066 1.668510970383295 137.33689533567673 H 0.0 **** 0.06
25541 C 124.79198292040499 13.919772643904167 19.722374886366197 C 0.0 **** -0.24
25542 H 124.46966830231607 14.60807607807402 20.503016085961008 H 0.0 **** 0.06
25543 H 123.92372014210406 13.402338604302628 19.31309274412871 H 0.0 **** 0.06
25544 H 125.48453208208538 13.190768759100735 20.142911505563916 H 0.0 **** 0.06
25545 H 125.29011985423588 14.47778445275813 18.929074494013207 H 0.0 **** 0.06
25546 C 108.64943905087813 109.62378812083861 126.6116542756825 C 0.0 **** -0.24
25547 H 109.62963364206593 110.07871442861077 126.7520560192907 H 0.0 **** 0.06
25548 H 108.14678233239452 109.53893481001182 127.57504007327128 H 0.0 **** 0.06
25549 H 108.7682196138502 108.6326319074808 126.17491916108435 H 0.0 **** 0.06
25550 H 108.05294820483482 110.24649809967485 125.94307733263122 H 0.0 **** 0.06
25551 C 56.33560335748885 46.580778600403676 134.65528025501035 C 0.0 **** -0.24
25552 H 56.957526998269344 47.471235092305164 134.745431629088 H 0.0 **** 0.06
25553 H 56.686461541717875 45.975719181729914 133.81967169498708 H 0.0 **** 0.06
25554 H 55.30108970248341 46.876945913906184 134.47943226156977 H 0.0 **** 0.06
25555 H 56.39597486554837 46.00095056961186 135.57621825049617 H 0.0 **** 0.06
25556 C 81.0897075414971 118.9143707214673 127.14540225118719 C 0.0 **** -0.24
25557 H 80.66269983408861 118.49606632580748 128.05626110969604 H 0.0 **** 0.06
25558 H 81.75929512503217 118.18512249435355 126.68875842984562 H 0.0 **** 0.06
25559 H 81.64696792211632 119.81863959783882 127.38721553652795 H 0.0 **** 0.06
25560 H 80.28754819150372 119.15850917300025 126.44799855366807 H 0.0 **** 0.06
25561 C 68.44595872733197 103.33424732221704 8.940396410961995 C 0.0 **** -0.24
25562 H 69.00678527268465 102.78167239091437 9.694420686300788 H 0.0 **** 0.06
25563 H 68.61961974410772 104.40279855092797 9.069552168420074 H 0.0 **** 0.06
25564 H 67.3831937836014 103.12289246925235 9.049853117125139 H 0.0 **** 0.06
25565 H 68.77766137117032 103.0304580544173 7.947000947314081 H 0.0 **** 0.06
25566 C 103.37483438174507 82.34830592520403 18.92433776239318 C 0.0 **** -0.24
25567 H 104.25591284767009 82.12858540131249 18.321503884220988 H 0.0 **** 0.06
25568 H 102.53622313377785 82.58711583204081 18.26856938231026 H 0.0 **** 0.06
25569 H 103.58191989658896 83.19775324414542 19.574644512000845 H 0.0 **** 0.06
25570 H 103.12430883271765 81.47771963647246 19.531709636678784 H 0.0 **** 0.06
25571 C 13.41851660321521 100.26682564284067 131.33983399226258 C 0.0 **** -0.24
25572 H 13.20955650921914 99.6256694820442 132.19591780609971 H 0.0 **** 0.06
25573 H 13.205071072831913 99.72412789765144 130.41920692169225 H 0.0 **** 0.06
25574 H 14.467460942223738 100.56125232712856 131.35389528065593 H 0.0 **** 0.06
25575 H 12.78968412664608 101.15645726120431 131.39115091942983 H 0.0 **** 0.06
25576 C 75.47794083453391 117.49919261622276 2.0577620240522947 C 0.0 **** -0.24
25577 H 75.61130400395086 116.64364768243047 1.3950635777914897 H 0.0 **** 0.06
25578 H 74.97512371759728 117.17677878413107 2.9698987246269724 H 0.0 **** 0.06
25579 H 74.87435167612267 118.25598861576069 1.5571464180044075 H 0.0 **** 0.06
25580 H 76.45267361728332 117.9190043924853 2.3083736463671585 H 0.0 **** 0.06
25581 C 91.88251068620148 30.21506318846096 81.63570384419356 C 0.0 **** -0.24
25582 H 92.17130499344808 30.731403145757838 80.72004125654341 H 0.0 **** 0.06
25583 H 92.71706836184089 29.61043128257296 81.98977555337125 H 0.0 **** 0.06
25584 H 91.02631307612651 29.57131964069299 81.43363462641439 H 0.0 **** 0.06
25585 H 91.61470021544227 30.947333611238406 82.39701561697113 H 0.0 **** 0.06
25586 C 9.194221523659792 34.40401570053717 83.42710243542258 C 0.0 **** -0.24
25587 H 8.360062678405825 34.84868496739337 82.88263626240244 H 0.0 **** 0.06
25588 H 9.289599004265256 34.88415701419143 84.40067343324208 H 0.0 **** 0.06
25589 H 10.113857738317279 34.54627897312656 82.85919885778088 H 0.0 **** 0.06
25590 H 9.011924055729821 33.33802613576165 83.56262341139447 H 0.0 **** 0.06
25591 C 43.48831485838319 38.333212655855334 40.12390145603264 C 0.0 **** -0.24
25592 H 42.78186004429241 37.99535427155962 39.365531242201186 H 0.0 **** 0.06
25593 H 43.065713427795224 38.16443583496937 41.11472864102454 H 0.0 **** 0.06
25594 H 43.685232211029614 39.397188575628434 39.98811149370041 H 0.0 **** 0.06
25595 H 44.42003386297163 37.77624488279679 40.025069997879314 H 0.0 **** 0.06
25596 C 38.11779330038934 16.741251831247297 123.56492260511834 C 0.0 **** -0.24
25597 H 38.47586325319858 16.546654838922308 124.57584197798178 H 0.0 **** 0.06
25598 H 38.27570580918339 17.792178452395973 123.32049473046004 H 0.0 **** 0.06
25599 H 37.05486531846145 16.50983022423864 123.50646624513683 H 0.0 **** 0.06
25600 H 38.66523895002399 16.11696170516828 122.85920443767782 H 0.0 **** 0.06
25601 C 124.89336333268626 15.720447367018977 60.01070095701964 C 0.0 **** -0.24
25602 H 125.41876915566164 16.410793212239938 60.67043452943531 H 0.0 **** 0.06
25603 H 125.57823521107078 15.360757543257904 59.24235348723799 H 0.0 **** 0.06
25604 H 124.05561976404239 16.235239049182653 59.53949364152206 H 0.0 **** 0.06
25605 H 124.52112679636828 14.875890584930744 60.59017903500042 H 0.0 **** 0.06
25606 C 88.04365847130722 68.27975254984442 119.13519616158916 C 0.0 **** -0.24
25607 H 88.26936536115306 69.18784308571583 118.5756489638825 H 0.0 **** 0.06
25608 H 88.12122306736339 67.41770475911355 118.4723489539845 H 0.0 **** 0.06
25609 H 87.03088625539458 68.34097745152299 119.53409092684741 H 0.0 **** 0.06
25610 H 88.75276186826962 68.17282613117308 119.9557418031796 H 0.0 **** 0.06
25611 C 22.056744972103616 80.17066727008847 96.32306564242862 C 0.0 **** -0.24
25612 H 21.869128393016943 79.97352057203307 97.37854764646902 H 0.0 **** 0.06
25613 H 21.20943753790636 80.7092500964971 95.89798360280288 H 0.0 **** 0.06
25614 H 22.1890339960461 79.22609718197208 95.79535262489449 H 0.0 **** 0.06
25615 H 22.959308816884096 80.7737339208216 96.22137391124963 H 0.0 **** 0.06
25616 C 14.42164954066535 4.469591669387057 107.8875599961869 C 0.0 **** -0.24
25617 H 14.570871514778958 3.4314530787312663 107.59200949971392 H 0.0 **** 0.06
25618 H 14.863611804498767 5.127645047209029 107.13954986188895 H 0.0 **** 0.06
25619 H 14.895913946573792 4.644528355576881 108.85295342049284 H 0.0 **** 0.06
25620 H 13.353035397699259 4.674070026472606 107.96645589871721 H 0.0 **** 0.06
25621 C 87.24481361333449 80.1164019026711 96.87803689679728 C 0.0 **** -0.24
25622 H 86.77714783995191 79.13654857259945 96.77745222266908 H 0.0 **** 0.06
25623 H 87.5642514976634 80.26244229786056 97.91087850946117 H 0.0 **** 0.06
25624 H 86.52836221938281 80.89032610013464 96.60486343155488 H 0.0 **** 0.06
25625 H 88.1109465992879 80.17389264165024 96.217887230116 H 0.0 **** 0.06
25626 C 29.191778351011322 89.28852673852015 25.195189749901914 C 0.0 **** -0.24
25627 H 29.65413687312335 88.72105673274459 24.387940456843893 H 0.0 **** 0.06
25628 H 28.966934426984267 90.29770780730496 24.847149614003996 H 0.0 **** 0.06
25629 H 29.876199389818368 89.33972411072062 26.041841816536277 H 0.0 **** 0.06
25630 H 28.269016259576034 88.79644950002634 25.50303579837862 H 0.0 **** 0.06
25631 C 132.7739231976919 8.516645371792464 13.70026490072648 C 0.0 **** -0.24
25632 H 132.4258118769768 8.48081663767897 12.668629398831694 H 0.0 **** 0.06
25633 H 132.76928320672346 7.510843194140719 14.119951090115194 H 0.0 **** 0.06
25634 H 132.1135559666236 9.157975360354857 14.28484601152168 H 0.0 **** 0.06
25635 H 133.78704174044364 8.916946294995093 13.727633102437089 H 0.0 **** 0.06
25636 C 65.6966499536594 26.960280635236188 75.30579628726093 C 0.0 **** -0.24
25637 H 65.33466595848617 26.37093913638435 76.14814789911577 H 0.0 **** 0.06
25638 H 66.27282329869382 27.807624680520888 75.67576432496043 H 0.0 **** 0.06
25639 H 64.84808524256721 27.32325892409753 74.72511238291082 H 0.0 **** 0.06
25640 H 66.3294439933799 26.338364399579476 74.67254044128174 H 0.0 **** 0.06
25641 C 103.52848008436037 9.386128516905728 127.17788654436464 C 0.0 **** -0.24
25642 H 102.91657231550303 9.922976463785915 126.45242168317104 H 0.0 **** 0.06
25643 H 104.03302577894493 10.101472833207424 127.82740807274004 H 0.0 **** 0.06
25644 H 104.27192133049698 8.786090329223327 126.65146900053466 H 0.0 **** 0.06
25645 H 102.89336151651801 8.734395841609569 127.77762062970906 H 0.0 **** 0.06
25646 C 58.60691780917068 51.162121934771505 63.20597886008191 C 0.0 **** -0.24
25647 H 58.845277619371814 51.50239057323279 62.19774378614618 H 0.0 **** 0.06
25648 H 59.26416652276518 51.657624119485604 63.92050651717467 H 0.0 **** 0.06
25649 H 58.74939543642432 50.08329466077561 63.268219503276924 H 0.0 **** 0.06
25650 H 57.56957244147475 51.40511745911414 63.435111580160154 H 0.0 **** 0.06
25651 C 134.9297528948074 56.35062740584175 103.9484128628174 C 0.0 **** -0.24
25652 H 135.39162298325576 56.875472808391066 104.78430362048238 H 0.0 **** 0.06
25653 H 135.614291697096 56.34656922142378 103.09980149640165 H 0.0 **** 0.06
25654 H 134.00622891068932 56.85753665690497 103.66685545956295 H 0.0 **** 0.06
25655 H 134.70592789305445 55.324969870665385 104.24097060159386 H 0.0 **** 0.06
25656 C 122.28194053729287 131.32311125818308 9.06657829591768 C 0.0 **** -0.24
25657 H 122.85187007197302 130.7117473012064 8.367004501237659 H 0.0 **** 0.06
25658 H 122.36839712351313 132.37287827489456 8.784394706722367 H 0.0 **** 0.06
25659 H 122.67567805573357 131.18423509514668 10.073599772314992 H 0.0 **** 0.06
25660 H 121.23425429284565 131.02467324489032 9.039945314729948 H 0.0 **** 0.06
25661 C 96.0472121644172 118.89878013590098 15.033227813531333 C 0.0 **** -0.24
25662 H 95.38600010307317 119.21251559278042 14.225671796993758 H 0.0 **** 0.06
25663 H 96.31676568773807 119.76400534274364 15.63852962340961 H 0.0 **** 0.06
25664 H 96.94929542801955 118.4542199477182 14.61140777738568 H 0.0 **** 0.06
25665 H 95.53680695022189 118.16337704908898 15.65588977839554 H 0.0 **** 0.06
25666 C 31.950441832938843 85.40716456282237 88.06081866575258 C 0.0 **** -0.24
25667 H 31.993060636322625 84.61789376942177 87.31011944240166 H 0.0 **** 0.06
25668 H 31.41902444258112 86.2679786682006 87.65270252868413 H 0.0 **** 0.06
25669 H 32.96267901761005 85.7017675163516 88.33616754127337 H 0.0 **** 0.06
25670 H 31.424995219295546 85.04081333664224 88.94289729577343 H 0.0 **** 0.06
25671 C 11.19991691251522 49.83806819340529 108.66631565945937 C 0.0 **** -0.24
25672 H 10.831425674682954 50.77177576936894 109.09127264064787 H 0.0 **** 0.06
25673 H 10.74220163690627 48.99654195825312 109.18803442022372 H 0.0 **** 0.06
25674 H 12.282562716309098 49.79115245329497 108.77862765657119 H 0.0 **** 0.06
25675 H 10.941583909231781 49.793886804920405 107.60844085043973 H 0.0 **** 0.06
25676 C 79.33416831793721 78.42087789665173 19.758894254287 C 0.0 **** -0.24
25677 H 78.52850617216234 77.90681706476278 19.234338205158146 H 0.0 **** 0.06
25678 H 78.97113110867542 79.37718353013528 20.134538435013795 H 0.0 **** 0.06
25679 H 80.16375001692711 78.59064551739483 19.0723134242183 H 0.0 **** 0.06
25680 H 79.6730512668293 77.80722766754354 20.59288271432363 H 0.0 **** 0.06
25681 C 68.94037822990106 84.77958414785323 33.73140352152771 C 0.0 **** -0.24
25682 H 69.9590911832355 84.73672205399457 34.117869382416046 H 0.0 **** 0.06
25683 H 68.50078587989105 85.74701561358017 33.97420176578416 H 0.0 **** 0.06
25684 H 68.34688307381515 83.98491605804203 34.18360833593954 H 0.0 **** 0.06
25685 H 68.95821116842387 84.64934804758347 32.64897123952889 H 0.0 **** 0.06
25686 C 20.76450799244688 97.51594083600116 14.103486328919189 C 0.0 **** -0.24
25687 H 21.74379961493281 97.7004499890823 14.544466289200614 H 0.0 **** 0.06
25688 H 20.729490460894752 97.94934495360957 13.10268124077686 H 0.0 **** 0.06
25689 H 19.993950007450536 97.97386313796169 14.724153426279372 H 0.0 **** 0.06
25690 H 20.59022073313767 96.44212303702918 14.040746269858971 H 0.0 **** 0.06
25691 C 96.86488409852515 41.91219078757258 5.147315699825555 C 0.0 **** -0.24
25692 H 96.51852073118395 42.20125500363107 4.15599220435945 H 0.0 **** 0.06
25693 H 96.00484875736615 41.71420121321832 5.788674803263859 H 0.0 **** 0.06
25694 H 97.45896249999979 42.72019309283399 5.574407252249529 H 0.0 **** 0.06
25695 H 97.47656988439006 41.012734007051364 5.071394027737 H 0.0 **** 0.06
25696 C 135.46649502341302 10.943932549359545 102.70892679226539 C 0.0 **** -0.24
25697 H 136.00222371095447 10.117033071897225 102.24242159087102 H 0.0 **** 0.06
25698 H 136.18286723737913 11.684044027428683 103.06838194717662 H 0.0 **** 0.06
25699 H 134.87994841747235 10.569306175175228 103.54803181437443 H 0.0 **** 0.06
25700 H 134.8024421043736 11.404994882301168 101.97849112749498 H 0.0 **** 0.06
25701 C 121.81277632757863 132.48364049421855 72.15668910983649 C 0.0 **** -0.24
25702 H 121.37978107902705 133.44501805214009 72.43576873629166 H 0.0 **** 0.06
25703 H 122.5837649765597 132.21053373438082 72.87782315175161 H 0.0 **** 0.06
25704 H 122.25524534620693 132.5594093532759 71.16369349843515 H 0.0 **** 0.06
25705 H 121.03356212133619 131.72206470889182 72.1506422563383 H 0.0 **** 0.06
25706 C 41.277883156540085 36.23042724991225 35.89818837333593 C 0.0 **** -0.24
25707 H 41.26957334384361 36.52640889075104 36.94722740010252 H 0.0 **** 0.06
25708 H 41.41567420316958 35.15130038351862 35.82525053096069 H 0.0 **** 0.06
25709 H 42.09546764912959 36.73662498237161 35.385486228714086 H 0.0 **** 0.06
25710 H 40.331327163502635 36.50812598564809 35.435208681412604 H 0.0 **** 0.06
25711 C 96.0366669357204 94.50081063040886 136.2325302881289 C 0.0 **** -0.24
25712 H 95.18731092360028 94.52612755140757 136.9162645542132 H 0.0 **** 0.06
25713 H 96.81770610562684 95.1677456478937 136.59898438649878 H 0.0 **** 0.06
25714 H 95.71497145255162 94.82689855689819 135.24293552800106 H 0.0 **** 0.06
25715 H 96.4235851457389 93.48450919526107 136.17245812681372 H 0.0 **** 0.06
25716 C 115.3843731279556 133.36957268677372 66.56457625240992 C 0.0 **** -0.24
25717 H 116.27924610466445 132.74799920296437 66.59537919902168 H 0.0 **** 0.06
25718 H 114.51093720684344 132.75984830707722 66.79797501406831 H 0.0 **** 0.06
25719 H 115.2742531502409 133.79670639465604 65.56824578104765 H 0.0 **** 0.06
25720 H 115.47322487093692 134.1720134582258 67.29666519650169 H 0.0 **** 0.06
25721 C 103.66524706840903 30.907638465313852 10.055190741387268 C 0.0 **** -0.24
25722 H 103.46379978227748 30.14027736114727 9.307543095493003 H 0.0 **** 0.06
25723 H 103.8237815224998 30.437307225410592 11.025994246739103 H 0.0 **** 0.06
25724 H 102.81455797457052 31.586788671787062 10.115681620626745 H 0.0 **** 0.06
25725 H 104.55668668952116 31.466659096856176 9.770497217268677 H 0.0 **** 0.06
25726 C 90.48155978936707 70.98712600818 75.06593682144486 C 0.0 **** -0.24
25727 H 90.44685175046361 69.89770471953891 75.05390878304269 H 0.0 **** 0.06
25728 H 91.06594217555595 71.34116739672504 74.21578562701006 H 0.0 **** 0.06
25729 H 90.94503581441771 71.325464252016 75.99203250481227 H 0.0 **** 0.06
25730 H 89.46795545017378 71.38277060174991 75.00066305174806 H 0.0 **** 0.06
25731 C 119.4921804623009 79.24488421860717 36.71349227388902 C 0.0 **** -0.24
25732 H 118.47289582382905 79.05761155521697 36.37490275428917 H 0.0 **** 0.06
25733 H 119.79299216787359 78.46106494473642 37.4090350478898 H 0.0 **** 0.06
25734 H 119.53716813616177 80.21200588646789 37.21317597483943 H 0.0 **** 0.06
25735 H 120.16495024596605 79.24773007196607 35.85638216290852 H 0.0 **** 0.06
25736 C 11.608136468890564 88.62358336305715 27.073686044767726 C 0.0 **** -0.24
25737 H 10.659398247404226 88.55825051922426 26.541093832129576 H 0.0 **** 0.06
25738 H 11.646927518779194 89.55993900288138 27.632622133551536 H 0.0 **** 0.06
25739 H 12.429697888386443 88.59305995812099 26.358237792429463 H 0.0 **** 0.06
25740 H 11.696204593544962 87.78436819651614 27.763908463554117 H 0.0 **** 0.06
25741 C 105.14109303309397 127.5558830863622 98.71273852775994 C 0.0 **** -0.24
25742 H 104.7742053461094 128.56869015655568 98.54919256914455 H 0.0 **** 0.06
25743 H 106.2275092457395 127.5732041318121 98.80519881458771 H 0.0 **** 0.06
25744 H 104.85865237549137 126.92611922825293 97.86752083784664 H 0.0 **** 0.06
25745 H 104.70398333180924 127.15404979661744 99.62642618978502 H 0.0 **** 0.06
25746 C 37.39430535046131 62.63872126570962 33.075261621779575 C 0.0 **** -0.24
25747 H 38.258224489846555 62.8157243321001 33.71706358980825 H 0.0 **** 0.06
25748 H 37.69410890102455 62.027147277273926 32.223668880782355 H 0.0 **** 0.06
25749 H 37.0051191722244 63.59258630083977 32.71838671059794 H 0.0 **** 0.06
25750 H 36.62195661681483 62.119821704247585 33.64168608427185 H 0.0 **** 0.06
25751 C 21.377539705846914 23.23002653921261 43.568585965253874 C 0.0 **** -0.24
25752 H 21.61404827400753 22.26213797618005 43.125772774149254 H 0.0 **** 0.06
25753 H 20.29543381978783 23.34062972358869 43.642001704451445 H 0.0 **** 0.06
25754 H 21.783004403906034 24.02445237086213 42.942661847596355 H 0.0 **** 0.06
25755 H 21.818093379888296 23.290512884106427 44.56434445949043 H 0.0 **** 0.06
25756 C 84.14072094350371 100.29386778081866 116.92880955047045 C 0.0 **** -0.24
25757 H 84.74696820976942 99.87175452571097 117.73013264474494 H 0.0 **** 0.06
25758 H 83.32543364696284 99.61013788699603 116.69147194896999 H 0.0 **** 0.06
25759 H 84.76070103402265 100.44220480720011 116.04420064630094 H 0.0 **** 0.06
25760 H 83.73115173860299 101.25166258954971 117.24923929046764 H 0.0 **** 0.06
25761 C 27.441319770539693 108.64280531343616 28.11019552430122 C 0.0 **** -0.24
25762 H 26.678381357974843 107.88918924388611 28.304159022131216 H 0.0 **** 0.06
25763 H 27.03330399917411 109.63287652199551 28.31662287482385 H 0.0 **** 0.06
25764 H 27.74986400763774 108.58701921017195 27.066388830362826 H 0.0 **** 0.06
25765 H 28.302549044514365 108.46337017035864 28.753900609452387 H 0.0 **** 0.06
25766 C 44.21357366966993 15.086645191502498 48.2033131243422 C 0.0 **** -0.24
25767 H 43.84559839921178 15.206312445770209 49.222547656663664 H 0.0 **** 0.06
25768 H 44.85128453957384 15.932348150606686 47.94509531965315 H 0.0 **** 0.06
25769 H 43.37026897075356 15.04365655697552 47.51480591646367 H 0.0 **** 0.06
25770 H 44.78857361490202 14.162553337166514 48.13097054734959 H 0.0 **** 0.06
25771 C 74.26109176623899 23.89576835768225 67.94141475832363 C 0.0 **** -0.24
25772 H 74.63737284416685 24.393880910900982 68.83506598026027 H 0.0 **** 0.06
25773 H 73.17293548590672 23.84443793463116 67.98489098828641 H 0.0 **** 0.06
25774 H 74.671374537916 22.8879098852519 67.88751338251052 H 0.0 **** 0.06
25775 H 74.56407680366279 24.45881480287028 67.05861249721166 H 0.0 **** 0.06
25776 C 43.40001014900014 13.836370692283282 64.29803491611986 C 0.0 **** -0.24
25777 H 42.68806436206924 13.490465701059584 65.0473325799049 H 0.0 **** 0.06
25778 H 42.90711118096402 14.540185593531653 63.626616044962844 H 0.0 **** 0.06
25779 H 43.766017645944146 12.98400902018341 63.72566165195519 H 0.0 **** 0.06
25780 H 44.237135439948844 14.328855210121908 64.79104630439231 H 0.0 **** 0.06
25781 C 31.039413483429087 13.748204096462075 65.20964771037234 C 0.0 **** -0.24
25782 H 31.90780761918353 13.948733670136562 65.83779786245464 H 0.0 **** 0.06
25783 H 30.27478469511658 14.503097587296423 65.39639822691794 H 0.0 **** 0.06
25784 H 30.641426751681706 12.761366962606388 65.44444988378973 H 0.0 **** 0.06
25785 H 31.33463137454234 13.781406123573362 64.16129040141641 H 0.0 **** 0.06
25786 C 82.5296259576914 120.11708437428862 131.35039886813996 C 0.0 **** -0.24
25787 H 82.01446072949113 120.18861915586398 132.30914476713997 H 0.0 **** 0.06
25788 H 82.06695657301788 119.33433842869366 130.7480078342238 H 0.0 **** 0.06
25789 H 83.57848332734596 119.87316490140068 131.52028879526 H 0.0 **** 0.06
25790 H 82.45805432797692 121.07029645850812 130.8273192841341 H 0.0 **** 0.06
25791 C 103.26985052092137 121.82438304122603 114.45803651157536 C 0.0 **** -0.24
25792 H 102.83531993100834 122.00679893590907 113.47506668506702 H 0.0 **** 0.06
25793 H 102.909117114469 120.8701873942379 114.84278339444245 H 0.0 **** 0.06
25794 H 102.97809841663664 122.62485749712151 115.13861675056819 H 0.0 **** 0.06
25795 H 104.35637583203261 121.79663386569047 114.37474905762485 H 0.0 **** 0.06
25796 C 101.27154100922401 76.6342770995607 79.32061540230853 C 0.0 **** -0.24
25797 H 101.41603540355028 75.62486517739922 78.9351105161121 H 0.0 **** 0.06
25798 H 102.18853974535388 77.2082920573631 79.18848215214831 H 0.0 **** 0.06
25799 H 101.0234100320384 76.58562082993888 80.38105336100438 H 0.0 **** 0.06
25800 H 100.45857320852163 77.11802154502534 78.77868113300116 H 0.0 **** 0.06
25801 C 48.235987140426005 15.949734370882823 124.16681638142236 C 0.0 **** -0.24
25802 H 47.607237631210324 15.908848879795272 123.27732467413742 H 0.0 **** 0.06
25803 H 49.2848160535973 15.973961064103975 123.86897565662571 H 0.0 **** 0.06
25804 H 48.05357707690274 15.06919588298041 124.78230933166677 H 0.0 **** 0.06
25805 H 47.99922554454736 16.847562633138324 124.73777384217604 H 0.0 **** 0.06
25806 C 84.62458751476667 33.93563630380462 134.92457105340907 C 0.0 **** -0.24
25807 H 85.196499027134 34.72839076801519 135.40762040838035 H 0.0 **** 0.06
25808 H 85.07647786129408 32.97070635382838 135.15506700361766 H 0.0 **** 0.06
25809 H 84.62790863917849 34.09129425624415 133.84639084146363 H 0.0 **** 0.06
25810 H 83.59846604943002 33.95398802330317 135.29214421226493 H 0.0 **** 0.06
25811 C 17.073923693974308 62.68910526985421 4.845618129953351 C 0.0 **** -0.24
25812 H 16.313241767105552 62.42640764023702 5.580396326139919 H 0.0 **** 0.06
25813 H 17.440695503027683 63.69627196524311 5.047565705245205 H 0.0 **** 0.06
25814 H 16.640863693345324 62.65313167313218 3.845815142491972 H 0.0 **** 0.06
25815 H 17.90046313808213 61.98195660656634 4.908668391359896 H 0.0 **** 0.06
25816 C 119.75237987713368 82.39629965416015 64.84024734488656 C 0.0 **** -0.24
25817 H 118.83786268385606 82.97258130122049 64.70144240953408 H 0.0 **** 0.06
25818 H 119.88371414454198 82.17417561913862 65.89965393514183 H 0.0 **** 0.06
25819 H 120.60336452746037 82.97526001244267 64.48179779630829 H 0.0 **** 0.06
25820 H 119.68379857900374 81.46470961486398 64.27833571873018 H 0.0 **** 0.06
25821 C 0.47711337821308675 27.349881979945195 89.30416508606814 C 0.0 **** -0.24
25822 H 1.3493711069254566 27.99802847895569 89.38408126610769 H 0.0 **** 0.06
25823 H 0.022838274574127126 27.473174664797597 88.3201583857496 H 0.0 **** 0.06
25824 H -0.24598426802526774 27.618695433499482 90.07409311815219 H 0.0 **** 0.06
25825 H 0.7822295681303828 26.3120895587399 89.43693197202856 H 0.0 **** 0.06
25826 C 57.19840477878304 65.6930048535785 5.600715625765794 C 0.0 **** -0.24
25827 H 57.79129851297674 66.07615697747879 6.43146080246278 H 0.0 **** 0.06
25828 H 57.13227002016332 64.60693030379207 5.672641798505378 H 0.0 **** 0.06
25829 H 57.67338353754744 65.96651941247616 4.65861689406351 H 0.0 **** 0.06
25830 H 56.1964808391909 66.12193870413321 5.641462374817877 H 0.0 **** 0.06
25831 C 75.83949940277651 103.05626529005846 80.56102128833066 C 0.0 **** -0.24
25832 H 76.34981149257304 103.60532932414748 79.76965896849546 H 0.0 **** 0.06
25833 H 76.3808346902984 102.13292163450797 80.76900373322724 H 0.0 **** 0.06
25834 H 74.82484835710632 102.81961572042229 80.24319708255295 H 0.0 **** 0.06
25835 H 75.8041170222371 103.6687395201959 81.4623161870891 H 0.0 **** 0.06
25836 C 22.878748907264054 84.74365587149167 97.3948424514212 C 0.0 **** -0.24
25837 H 21.858770202865117 85.12799781756976 97.43859014101874 H 0.0 **** 0.06
25838 H 23.100220345468614 84.19903055975459 98.31345542718431 H 0.0 **** 0.06
25839 H 23.575691117554925 85.57493150287137 97.28717419680943 H 0.0 **** 0.06
25840 H 22.97721509785663 84.07350992861394 96.54097543829957 H 0.0 **** 0.06
25841 C 121.27026992991847 3.1382563363928284 128.54577576054498 C 0.0 **** -0.24
25842 H 121.12994937236832 3.2318138819171054 129.62265188562813 H 0.0 **** 0.06
25843 H 122.29008660535935 3.4217662511127855 128.2859486452056 H 0.0 **** 0.06
25844 H 120.56853887557651 3.794516535169066 128.0307047415496 H 0.0 **** 0.06
25845 H 121.09105156411525 2.1066264349819335 128.24372185280683 H 0.0 **** 0.06
25846 C 61.781321496783505 76.53589534905808 116.23836218282503 C 0.0 **** -0.24
25847 H 61.38991297797017 76.42854189653185 117.24981047774057 H 0.0 **** 0.06
25848 H 61.39458599075823 77.45418242289526 115.79539084779216 H 0.0 **** 0.06
25849 H 61.47121600435574 75.68300158927663 115.63599783900148 H 0.0 **** 0.06
25850 H 62.86961938370655 76.58026208938037 116.27270366585424 H 0.0 **** 0.06
25851 C 62.32579524530617 106.92994493338189 0.23188804541422314 C 0.0 **** -0.24
25852 H 62.282276289939475 107.92534260559273 -0.20956706320049534 H 0.0 **** 0.06
25853 H 63.35609503918586 106.57514497461447 0.22675437832822354 H 0.0 **** 0.06
25854 H 61.70264556279122 106.24909107347156 -0.34891450947316116 H 0.0 **** 0.06
25855 H 61.96045341317556 106.97119600501512 1.257835773161844 H 0.0 **** 0.06
25856 C 61.177254379286325 127.34473773330097 113.30840682527662 C 0.0 **** -0.24
25857 H 61.203700642650574 126.83564753656398 114.27198133717124 H 0.0 **** 0.06
25858 H 60.17230823135981 127.72544740891789 113.12576113062613 H 0.0 **** 0.06
25859 H 61.448555657707146 126.64221133311392 112.51947818301127 H 0.0 **** 0.06
25860 H 61.88488244550285 128.17323562068944 113.31651799526264 H 0.0 **** 0.06
25861 C 12.905009930267042 97.43615666254374 45.45335912760302 C 0.0 **** -0.24
25862 H 12.491223088170074 97.81071713430799 44.516268931296 H 0.0 **** 0.06
25863 H 13.706432851998628 96.72869043192884 45.23963287333163 H 0.0 **** 0.06
25864 H 12.120075717524983 96.93667858718482 46.022086689549525 H 0.0 **** 0.06
25865 H 13.29968253781307 98.2696906903862 46.033502707443915 H 0.0 **** 0.06
25866 C 104.28688773330886 89.74405166929563 57.66785339182367 C 0.0 **** -0.24
25867 H 103.39321933269711 89.61026485852386 57.05935205144587 H 0.0 **** 0.06
25868 H 104.00755528833987 90.1666243188291 58.633872998780944 H 0.0 **** 0.06
25869 H 104.97356699768753 90.42082982815617 57.16004639894469 H 0.0 **** 0.06
25870 H 104.7709296304106 88.77927061992801 57.81857836405486 H 0.0 **** 0.06
25871 C 49.147479014995895 76.1392720172251 74.52774848996785 C 0.0 **** -0.24
25872 H 48.18961385414474 76.64303087323657 74.3894353764526 H 0.0 **** 0.06
25873 H 49.498240076516396 75.75900845501621 73.56820361099345 H 0.0 **** 0.06
25874 H 49.023931206697654 75.31053360746515 75.22469729404543 H 0.0 **** 0.06
25875 H 49.8749285578707 76.84595499222218 74.92783775860849 H 0.0 **** 0.06
25876 C 117.94784280066312 53.75327159851031 52.192206425206905 C 0.0 **** -0.24
25877 H 117.34976258359316 53.0221769254166 51.64764722318229 H 0.0 **** 0.06
25878 H 118.03637538835765 54.663874872289966 51.59924711351289 H 0.0 **** 0.06
25879 H 118.93985055760598 53.34306239403202 52.380835883879215 H 0.0 **** 0.06
25880 H 117.46271870660138 53.982457745007764 53.14187661089939 H 0.0 **** 0.06
25881 C 51.46636449032252 75.27186123729405 128.48446668209593 C 0.0 **** -0.24
25882 H 52.34783024140364 74.76054852936863 128.8705307659381 H 0.0 **** 0.06
25883 H 50.717951200597696 75.35174394581645 129.2737356000843 H 0.0 **** 0.06
25884 H 51.05434695648978 74.70539645103293 127.64957253285847 H 0.0 **** 0.06
25885 H 51.744529582542896 76.26932865661291 128.14444906096278 H 0.0 **** 0.06
25886 C 85.68822510065786 79.57039626627986 52.303707493500966 C 0.0 **** -0.24
25887 H 84.67338574723374 79.35951149496742 52.63977999367455 H 0.0 **** 0.06
25888 H 86.2230966228384 80.11394121640484 53.08226473881216 H 0.0 **** 0.06
25889 H 85.65239596267838 80.1744090705191 51.39642092256577 H 0.0 **** 0.06
25890 H 86.20320364127747 78.63310187262854 52.094969986663855 H 0.0 **** 0.06
25891 C 119.50389756954311 60.45137791268087 126.5521717398965 C 0.0 **** -0.24
25892 H 118.68838622685944 61.16935203860152 126.46916309319516 H 0.0 **** 0.06
25893 H 119.82223619180564 60.14712595149268 125.55525784641262 H 0.0 **** 0.06
25894 H 119.16314684472462 59.578158448878185 127.1076730736755 H 0.0 **** 0.06
25895 H 120.34139517452135 60.91214788767843 127.07614679750603 H 0.0 **** 0.06
25896 C 47.851911062041665 4.4567910719144095 104.94546251370086 C 0.0 **** -0.24
25897 H 48.427013331373985 5.330248961401253 104.63760090020958 H 0.0 **** 0.06
25898 H 47.25029143701697 4.708279190504243 105.81892895060612 H 0.0 **** 0.06
25899 H 48.533275315576674 3.6430737999241387 105.19589227176675 H 0.0 **** 0.06
25900 H 47.1989348878121 4.145900804966857 104.13060524421822 H 0.0 **** 0.06
25901 C 132.18286814327604 66.47798951059582 11.739080890922462 C 0.0 **** -0.24
25902 H 132.27885190136612 66.76591557503656 12.786006754816157 H 0.0 **** 0.06
25903 H 131.24793743379183 65.93496818815697 11.597064970707688 H 0.0 **** 0.06
25904 H 133.0205504423671 65.83979613158328 11.459641109113647 H 0.0 **** 0.06
25905 H 132.18240014368325 67.37172483709571 11.116218189382362 H 0.0 **** 0.06
25906 C 131.50360585653817 63.3988316507582 41.829415144344495 C 0.0 **** -0.24
25907 H 131.5037221580278 64.379843550472 42.30397986856448 H 0.0 **** 0.06
25908 H 131.0572648103239 63.4748767777475 40.837365790620936 H 0.0 **** 0.06
25909 H 130.92389926445563 62.70214418111598 42.435915723884136 H 0.0 **** 0.06
25910 H 132.52753164419488 63.03747613597146 41.740475951723255 H 0.0 **** 0.06
25911 C 94.73316159905289 134.63519965846854 70.33115926126995 C 0.0 **** -0.24
25912 H 93.69903708178913 134.2948056720066 70.28399517552846 H 0.0 **** 0.06
25913 H 95.28749282407674 134.2304024362901 69.48331832650803 H 0.0 **** 0.06
25914 H 95.18801622627441 134.29113796474513 71.25988735235305 H 0.0 **** 0.06
25915 H 94.758481039477 135.72424713146057 70.29464098414408 H 0.0 **** 0.06
25916 C 40.41963077531378 113.65582975073698 57.119269683753316 C 0.0 **** -0.24
25917 H 41.113158733361274 114.25766003208867 57.70557957777825 H 0.0 **** 0.06
25918 H 40.17380334115194 114.18116626695041 56.19524880870506 H 0.0 **** 0.06
25919 H 39.509801801770664 113.4860375626414 57.69426348672749 H 0.0 **** 0.06
25920 H 40.88245349227836 112.69845636703377 56.879861250564204 H 0.0 **** 0.06
25921 C 106.46418294555738 123.2253982074869 118.53095938988952 C 0.0 **** -0.24
25922 H 106.01651937464408 122.99525653860368 117.56352605541969 H 0.0 **** 0.06
25923 H 106.72856992688145 124.28236093029075 118.56670012213755 H 0.0 **** 0.06
25924 H 107.36014226545178 122.62022050928095 118.66928477879114 H 0.0 **** 0.06
25925 H 105.74861996451423 123.0024255790527 119.32335825433893 H 0.0 **** 0.06
25926 C 19.963198769696646 42.435372921121484 105.24691390992086 C 0.0 **** -0.24
25927 H 18.89456068093469 42.497594111094344 105.04559291944868 H 0.0 **** 0.06
25928 H 20.241657056246282 41.39440470402096 105.41238062997226 H 0.0 **** 0.06
25929 H 20.2005203530355 43.02036613407333 106.13583488352225 H 0.0 **** 0.06
25930 H 20.516748264276842 42.82807885982032 104.39449850358105 H 0.0 **** 0.06
25931 C 82.81365521442268 113.95951582807919 89.20131289169416 C 0.0 **** -0.24
25932 H 83.70567919949218 113.3360626204286 89.25289119638296 H 0.0 **** 0.06
25933 H 82.07600499425583 113.59739997470069 89.91801112720964 H 0.0 **** 0.06
25934 H 82.39686155049102 113.91552036712159 88.19527885302415 H 0.0 **** 0.06
25935 H 83.0770360211666 114.99015395320055 89.44078043823077 H 0.0 **** 0.06
25936 C 93.44823538468637 56.932748711750335 97.89627870724317 C 0.0 **** -0.24
25937 H 92.60293888113722 56.32102106726181 97.58246167310153 H 0.0 **** 0.06
25938 H 94.37725628787541 56.39567040145229 97.7056610243497 H 0.0 **** 0.06
25939 H 93.36496674001455 57.14836902454631 98.96189370111637 H 0.0 **** 0.06
25940 H 93.44814664767608 57.868021131327865 97.33581319529799 H 0.0 **** 0.06
25941 C 30.203423926570395 5.548244978875857 123.0449317838696 C 0.0 **** -0.24
25942 H 31.237543781475495 5.402479511181809 122.73180618028637 H 0.0 **** 0.06
25943 H 30.15063283497227 6.383428404495305 123.74321095386114 H 0.0 **** 0.06
25944 H 29.84000568334136 4.643416018719961 123.53075967070585 H 0.0 **** 0.06
25945 H 29.587332084496893 5.76475792887851 122.17208525899228 H 0.0 **** 0.06
25946 C 30.963167822513384 74.51444867358515 94.4277720915124 C 0.0 **** -0.24
25947 H 31.47510649183542 75.20296196361306 95.10007954453522 H 0.0 **** 0.06
25948 H 30.14918517186264 74.02510927876614 94.96124017280044 H 0.0 **** 0.06
25949 H 31.668179021143402 73.76355350697105 94.07163068317163 H 0.0 **** 0.06
25950 H 30.56160590945703 75.06790466690518 93.57826481817227 H 0.0 **** 0.06
25951 C 5.415609777212239 76.2763812870042 84.81102975537452 C 0.0 **** -0.24
25952 H 5.338189608758512 75.19173450099171 84.87746372000045 H 0.0 **** 0.06
25953 H 4.643580198532163 76.7349096405879 85.42919652463327 H 0.0 **** 0.06
25954 H 5.284906095557176 76.58730737742476 83.77447460464577 H 0.0 **** 0.06
25955 H 6.3981422308493165 76.59186979915152 85.16348696651077 H 0.0 **** 0.06
25956 C 129.1438574708177 114.85233251627668 110.09359351492884 C 0.0 **** -0.24
25957 H 130.14155668536978 115.25693410028708 110.26071876128682 H 0.0 **** 0.06
25958 H 128.4971601856705 115.12187759675723 110.92896478646387 H 0.0 **** 0.06
25959 H 129.20067677830576 113.76699534672309 110.01221266406722 H 0.0 **** 0.06
25960 H 128.7352030681766 115.26391398836483 109.16980327309125 H 0.0 **** 0.06
25961 C 78.78019914968057 64.44526281251626 113.1149009513507 C 0.0 **** -0.24
25962 H 79.8028421725202 64.78140422797296 113.28619677696724 H 0.0 **** 0.06
25963 H 78.78713368282804 63.39713600565506 112.81514406991505 H 0.0 **** 0.06
25964 H 78.32775993239802 65.04637938051434 112.3262903496701 H 0.0 **** 0.06
25965 H 78.20323833236205 64.55694150632715 114.03311833516108 H 0.0 **** 0.06
25966 C 20.7584725718429 20.02497871020946 51.57727481167238 C 0.0 **** -0.24
25967 H 20.12185402886888 20.848079606703855 51.90226992021201 H 0.0 **** 0.06
25968 H 21.203948271365014 20.269691950637743 50.612811275587404 H 0.0 **** 0.06
25969 H 20.15986181846781 19.11938605361795 51.481378272731035 H 0.0 **** 0.06
25970 H 21.545920902533133 19.863571475926015 52.312791532870875 H 0.0 **** 0.06
25971 C 121.58997731144495 5.461027968201108 124.39147738144857 C 0.0 **** -0.24
25972 H 120.59985837213192 5.843214958579665 124.64006269202224 H 0.0 **** 0.06
25973 H 121.62447670748027 4.38924103663561 124.58890753018204 H 0.0 **** 0.06
25974 H 122.3389623799862 5.968180798742367 124.9994686832606 H 0.0 **** 0.06
25975 H 121.794413024923 5.6436263250266165 123.33640157795367 H 0.0 **** 0.06
25976 C 89.2217316436255 121.29410850887382 132.07549063447976 C 0.0 **** -0.24
25977 H 89.35540749537057 120.39165257272248 131.47995889007785 H 0.0 **** 0.06
25978 H 88.17300652618373 121.39289626086008 132.35597535246973 H 0.0 **** 0.06
25979 H 89.52660194098402 122.16280307453144 131.4922514908826 H 0.0 **** 0.06
25980 H 89.83316691749602 121.22817061191824 132.97567182798466 H 0.0 **** 0.06
25981 C 15.142097290580296 123.88563163470224 46.44680233450018 C 0.0 **** -0.24
25982 H 14.37093748416305 124.05808403385727 45.69548760560548 H 0.0 **** 0.06
25983 H 15.357300221350386 124.81768952054426 46.968038168185444 H 0.0 **** 0.06
25984 H 16.047312271055034 123.52283104487412 45.960496251299276 H 0.0 **** 0.06
25985 H 14.791070584821341 123.14131223394516 47.16215678037736 H 0.0 **** 0.06
25986 C 68.48566210993337 118.79771929929055 119.08691868520711 C 0.0 **** -0.24
25987 H 67.9311022575852 119.47192270800778 118.43537043208346 H 0.0 **** 0.06
25988 H 68.09265027556457 117.78640783221567 118.98184783647886 H 0.0 **** 0.06
25989 H 68.37809936869989 119.12390852983698 120.12231425839295 H 0.0 **** 0.06
25990 H 69.53919966919922 118.8102500960645 118.80983098183799 H 0.0 **** 0.06
25991 C 69.67793713953617 88.33672231246402 15.98691799585491 C 0.0 **** -0.24
25992 H 69.46652814508688 88.03707486812331 17.013457189237897 H 0.0 **** 0.06
25993 H 69.40720983693532 89.38397845446084 15.851546748352618 H 0.0 **** 0.06
25994 H 69.09616017144805 87.71890406625293 15.3023734271017 H 0.0 **** 0.06
25995 H 70.73975028144521 88.20567160794927 15.782295045703492 H 0.0 **** 0.06
25996 C 66.99415599616607 86.33068854380308 79.58434930926283 C 0.0 **** -0.24
25997 H 67.39695468377984 85.85650933607607 78.68974753990184 H 0.0 **** 0.06
25998 H 67.81043009918977 86.57844374414263 80.26396249250907 H 0.0 **** 0.06
25999 H 66.30543573771016 85.64563133875825 80.07921708272893 H 0.0 **** 0.06
26000 H 66.46417839796214 87.24144728361499 79.30562664710281 H 0.0 **** 0.06
26001 C 134.54802519897396 71.950648267421 59.460471844857395 C 0.0 **** -0.24
26002 H 135.33135128063333 72.36910050708468 60.092719462774895 H 0.0 **** 0.06
26003 H 134.68278619363593 70.87119697856781 59.38171576858507 H 0.0 **** 0.06
26004 H 134.60441196911557 72.39750667576982 58.46804343849101 H 0.0 **** 0.06
26005 H 133.57396167614962 72.16497605090694 59.90030126685323 H 0.0 **** 0.06
26006 C 91.2983822893608 30.638269011452273 71.36347060363491 C 0.0 **** -0.24
26007 H 92.037212178217 30.248261133903718 72.06438812112867 H 0.0 **** 0.06
26008 H 91.79230412292867 31.281704286697526 70.63534675969305 H 0.0 **** 0.06
26009 H 90.54924910361541 31.21296260216566 71.90748418546548 H 0.0 **** 0.06
26010 H 90.81480174277866 29.80917457995244 70.8468892058406 H 0.0 **** 0.06
26011 C 9.599879635381555 83.19160162735835 104.2125500431784 C 0.0 **** -0.24
26012 H 9.392104417525797 82.61137023342836 105.1113192171423 H 0.0 **** 0.06
26013 H 10.638623840338546 83.5222689156797 104.22733867568354 H 0.0 **** 0.06
26014 H 8.94137138002747 84.05858012698891 104.17980649776698 H 0.0 **** 0.06
26015 H 9.428840021414587 82.57118180339978 103.3331316394395 H 0.0 **** 0.06
26016 C 84.27773091157434 44.30585589918745 31.902946458813062 C 0.0 **** -0.24
26017 H 85.13273364413425 44.315873111034875 31.227561378814983 H 0.0 **** 0.06
26018 H 84.34796492426253 43.44380546598957 32.5657347064124 H 0.0 **** 0.06
26019 H 83.35665552426852 44.244673864970224 31.32209190136618 H 0.0 **** 0.06
26020 H 84.27340670345342 45.221176762298654 32.4951568108784 H 0.0 **** 0.06
26021 C 135.63309891760758 106.86719647438827 25.845020231113637 C 0.0 **** -0.24
26022 H 136.15563489169622 106.2827127639613 25.086584938763735 H 0.0 **** 0.06
26023 H 135.86063614434028 106.46572672476827 26.832402073085547 H 0.0 **** 0.06
26024 H 134.55905305995378 106.81374013121243 25.6688471698194 H 0.0 **** 0.06
26025 H 135.95951118099023 107.90630313817492 25.7905271953222 H 0.0 **** 0.06
26026 C 35.72293235290715 8.287701845653828 59.18328372188141 C 0.0 **** -0.24
26027 H 35.325429460205186 7.6525014699392955 58.391228149954145 H 0.0 **** 0.06
26028 H 35.618454019423496 9.335094574042103 58.895641701486895 H 0.0 **** 0.06
26029 H 36.777166568368045 8.056788536485385 59.338681149284014 H 0.0 **** 0.06
26030 H 35.17178856016014 8.107440703033944 60.10565157240379 H 0.0 **** 0.06
26031 C 123.59109981533092 26.787804378801496 18.219737678735044 C 0.0 **** -0.24
26032 H 122.64106033858154 27.014203873032017 17.736756025707052 H 0.0 **** 0.06
26033 H 123.40511025590767 26.352220611710116 19.20184091273029 H 0.0 **** 0.06
26034 H 124.16844803212902 27.705474011368032 18.33225676236809 H 0.0 **** 0.06
26035 H 124.14978063470552 26.07931901909579 17.6080970141347 H 0.0 **** 0.06
26036 C 71.49745769823964 49.67686796871999 50.38116177328925 C 0.0 **** -0.24
26037 H 72.4859137289204 49.22922037689273 50.4860206590792 H 0.0 **** 0.06
26038 H 71.03489364960599 49.32325493197084 49.45993196316829 H 0.0 **** 0.06
26039 H 71.59285260758152 50.76184515433465 50.34680555319528 H 0.0 **** 0.06
26040 H 70.87857485878145 49.392712582965714 51.23172086489177 H 0.0 **** 0.06
26041 C 44.95424096020745 82.69212181213216 136.26360409216645 C 0.0 **** -0.24
26042 H 44.65109437165656 83.7074870263291 136.00890491172643 H 0.0 **** 0.06
26043 H 45.275099265816166 82.66060323274515 137.305069219505 H 0.0 **** 0.06
26044 H 45.77877268633506 82.3866634964184 135.62031437535595 H 0.0 **** 0.06
26045 H 44.111831752994 82.01525338899589 136.12204168459803 H 0.0 **** 0.06
26046 C 122.10421058119037 105.82209887370266 81.01943435024191 C 0.0 **** -0.24
26047 H 122.83709113966992 105.86248736645138 81.82589077530724 H 0.0 **** 0.06
26048 H 122.58243083503311 106.10133178033728 80.07967932182956 H 0.0 **** 0.06
26049 H 121.29084389524824 106.5157511906168 81.23356090374307 H 0.0 **** 0.06
26050 H 121.70773016265314 104.8103909488656 80.93959470443312 H 0.0 **** 0.06
26051 C 87.81217366545172 57.63441439410991 87.78926266352101 C 0.0 **** -0.24
26052 H 88.36848372506692 58.5704050321952 87.76025187269897 H 0.0 **** 0.06
26053 H 86.80598983338754 57.820827787037615 88.16565240616873 H 0.0 **** 0.06
26054 H 88.32068092904441 56.92917283758743 88.44689993964934 H 0.0 **** 0.06
26055 H 87.75304159785374 57.215772242100456 86.78499617885575 H 0.0 **** 0.06
26056 C 114.71988638852588 33.70883666700411 135.99568165048288 C 0.0 **** -0.24
26057 H 113.89131948170149 33.38429076746348 136.6246934741837 H 0.0 **** 0.06
26058 H 115.34772704044656 32.851138271851596 135.75116025881977 H 0.0 **** 0.06
26059 H 115.31231903065733 34.45257012019687 136.52944959603852 H 0.0 **** 0.06
26060 H 114.32919399353409 34.14636209946616 135.07739358341112 H 0.0 **** 0.06
26061 C 45.92116492812015 89.70125834233703 98.57380775052665 C 0.0 **** -0.24
26062 H 45.57337988413647 90.7296034422329 98.47084647419756 H 0.0 **** 0.06
26063 H 46.32172160932117 89.35679685640363 97.61965694660893 H 0.0 **** 0.06
26064 H 45.088363534470226 89.06369198020886 98.87015218467398 H 0.0 **** 0.06
26065 H 46.70155072041068 89.6568088996019 99.33339863863459 H 0.0 **** 0.06
26066 C 115.59484957709708 0.5352377243715409 107.65053843443467 C 0.0 **** -0.24
26067 H 116.66389718034054 0.4317292771319785 107.46475284628535 H 0.0 **** 0.06
26068 H 115.10742078091121 -0.43147478239473 107.51849212767135 H 0.0 **** 0.06
26069 H 115.17130508711787 1.2543684979140153 106.94901503219204 H 0.0 **** 0.06
26070 H 115.43559035905525 0.8852871687312245 108.67060998371653 H 0.0 **** 0.06
26071 C 122.67763349793029 102.09696264895177 116.65562739282853 C 0.0 **** -0.24
26072 H 121.97472346409972 102.54659922898237 115.95515010020964 H 0.0 **** 0.06
26073 H 122.62820032339584 101.01104564864545 116.57296718711609 H 0.0 **** 0.06
26074 H 122.41923822097107 102.39577232271384 117.67129303651299 H 0.0 **** 0.06
26075 H 123.68787023450562 102.43405801224797 116.42387859462502 H 0.0 **** 0.06
26076 C 93.74194007222557 93.22056799325222 99.43028886449396 C 0.0 **** -0.24
26077 H 94.14894912768582 93.39628865786588 100.42616483465686 H 0.0 **** 0.06
26078 H 93.9161856865736 92.18314135816101 99.14488125567617 H 0.0 **** 0.06
26079 H 94.23100957516333 93.8820402579577 98.71627384062145 H 0.0 **** 0.06
26080 H 92.67027332152601 93.42071049790394 99.43562141574326 H 0.0 **** 0.06
26081 C 59.10145586168083 73.31730477758747 67.38427250881695 C 0.0 **** -0.24
26082 H 58.99145600680521 72.70429620008855 66.48982208018323 H 0.0 **** 0.06
26083 H 60.118733225665466 73.70951413469201 67.43225980220144 H 0.0 **** 0.06
26084 H 58.90436493983418 72.71007311153208 68.26691675547173 H 0.0 **** 0.06
26085 H 58.39407651133533 74.14575806071365 67.34610606164671 H 0.0 **** 0.06
26086 C 35.728073711072646 111.64185368844124 35.604451267067084 C 0.0 **** -0.24
26087 H 34.645050779282236 111.70737818243549 35.49793857416396 H 0.0 **** 0.06
26088 H 36.13558059768505 111.02320804830174 34.80548210222962 H 0.0 **** 0.06
26089 H 35.97128238711634 111.19728401486032 36.5692991253029 H 0.0 **** 0.06
26090 H 36.15943289190025 112.64179502397286 35.54527604294482 H 0.0 **** 0.06
26091 C 23.047117560752724 37.33330873116887 107.55101526298208 C 0.0 **** -0.24
26092 H 23.837928222643598 37.3109185002221 106.8008297776938 H 0.0 **** 0.06
26093 H 23.438754184987772 36.970830042943305 108.50150514802024 H 0.0 **** 0.06
26094 H 22.223687189440852 36.69598998644585 107.22968478888879 H 0.0 **** 0.06
26095 H 22.690096431475524 38.356188637130344 107.67080120866605 H 0.0 **** 0.06
26096 C 79.79498038284254 39.89662889030521 111.97134993522468 C 0.0 **** -0.24
26097 H 80.67014125895156 40.02068559739649 111.33362943946202 H 0.0 **** 0.06
26098 H 79.70202646859042 38.85047895976419 112.2623721660253 H 0.0 **** 0.06
26099 H 78.90225725515086 40.20362403439006 111.4258707967021 H 0.0 **** 0.06
26100 H 79.90573191802105 40.513949209102236 112.86344680976967 H 0.0 **** 0.06
26101 C 13.760351711955536 31.504687392629208 86.45405961366089 C 0.0 **** -0.24
26102 H 12.955357632595792 31.496838392926726 87.18966211335959 H 0.0 **** 0.06
26103 H 13.769602766928188 32.46356563393614 85.93608955142827 H 0.0 **** 0.06
26104 H 13.60057774630775 30.702496714088873 85.73294485119004 H 0.0 **** 0.06
26105 H 14.714526554071881 31.35433455330353 86.95951829317403 H 0.0 **** 0.06
26106 C 92.62757396522426 111.5013985016837 124.60454744306611 C 0.0 **** -0.24
26107 H 93.1100120534488 111.34698642513354 125.56952124986708 H 0.0 **** 0.06
26108 H 91.57723114045298 111.21721058267576 124.67361457811978 H 0.0 **** 0.06
26109 H 93.12107997097162 110.88862149004845 123.84964860490288 H 0.0 **** 0.06
26110 H 92.70345840725388 112.55192710412607 124.32513513471457 H 0.0 **** 0.06
26111 C 77.09355104092549 6.25017136020147 101.67907652019015 C 0.0 **** -0.24
26112 H 76.93216465252306 5.50350112228514 102.45739850303616 H 0.0 **** 0.06
26113 H 78.00100457022256 6.813313965328703 101.8990756155378 H 0.0 **** 0.06
26114 H 76.2427420181736 6.93045155002801 101.64715611572335 H 0.0 **** 0.06
26115 H 77.19845683638965 5.75314655083481 100.71437853552438 H 0.0 **** 0.06
26116 C 51.368607098853346 26.974350311010653 72.81942967283368 C 0.0 **** -0.24
26117 H 52.415005531443256 27.08533880311623 73.10353692600017 H 0.0 **** 0.06
26118 H 51.11655485146622 25.914512051633565 72.76925352179185 H 0.0 **** 0.06
26119 H 51.20702693769587 27.433115965608266 71.84451688812788 H 0.0 **** 0.06
26120 H 50.73675324113606 27.464196956721082 73.56074543381618 H 0.0 **** 0.06
26121 C 69.93514875875024 54.83539491575483 25.246479478479273 C 0.0 **** -0.24
26122 H 70.0363511634938 55.73651685192587 24.64141881766907 H 0.0 **** 0.06
26123 H 70.91064304964453 54.55121911770486 25.640513795729902 H 0.0 **** 0.06
26124 H 69.5423577558031 54.026514948682745 24.630426324695314 H 0.0 **** 0.06
26125 H 69.25086344786155 55.02755470910435 26.072661826749027 H 0.0 **** 0.06
26126 C 81.98242835688336 20.415579092826306 35.72740073064733 C 0.0 **** -0.24
26127 H 82.3077531820202 21.037495460616753 34.893708442735885 H 0.0 **** 0.06
26128 H 82.82013928823147 20.249582340902236 36.40529642370973 H 0.0 **** 0.06
26129 H 81.62572903402338 19.458021963753268 35.34846804178869 H 0.0 **** 0.06
26130 H 81.17604671275436 20.91846729921474 36.26278866089791 H 0.0 **** 0.06
26131 C 106.60839881075754 25.616083939947856 18.943586277477948 C 0.0 **** -0.24
26132 H 105.60829684828394 25.813904421149743 18.55884721088603 H 0.0 **** 0.06
26133 H 107.08698352224707 24.848604526006 18.33435960621182 H 0.0 **** 0.06
26134 H 106.53784945386741 25.26897239276417 19.974932229086846 H 0.0 **** 0.06
26135 H 107.19919875396198 26.531143437996178 18.906890412592134 H 0.0 **** 0.06
26136 C 105.34070140764902 7.214310225720226 92.45590380296564 C 0.0 **** -0.24
26137 H 104.29234553067869 7.051061960714094 92.20721324161786 H 0.0 **** 0.06
26138 H 105.92478778597768 7.28354331409281 91.53733153080775 H 0.0 **** 0.06
26139 H 105.70550811252394 6.3811103803931815 93.05624631338246 H 0.0 **** 0.06
26140 H 105.43993502936786 8.14067278826991 93.02133384683077 H 0.0 **** 0.06
26141 C 42.777483580369335 76.46996837882189 61.269166769503954 C 0.0 **** -0.24
26142 H 42.45077111591786 76.21647554396148 60.260282512214474 H 0.0 **** 0.06
26143 H 43.72068529859661 75.96663746260623 61.481245910994346 H 0.0 **** 0.06
26144 H 42.022929858013185 76.14568541672485 61.98642428433823 H 0.0 **** 0.06
26145 H 42.913794066913 77.54777236433269 61.34671028183817 H 0.0 **** 0.06
26146 C 100.63747657883948 26.543995432103998 114.42199634559591 C 0.0 **** -0.24
26147 H 100.7099667373449 27.08678414675751 113.48027792409775 H 0.0 **** 0.06
26148 H 101.10042881515331 27.130507816279135 115.21652487322754 H 0.0 **** 0.06
26149 H 101.1525841661018 25.58706932090604 114.32944515474534 H 0.0 **** 0.06
26150 H 99.58855641421587 26.37014522008235 114.66132799193784 H 0.0 **** 0.06
26151 C 132.08139327583777 113.98987974297586 14.98050411565174 C 0.0 **** -0.24
26152 H 132.638619837864 113.05726351631986 15.063139143830199 H 0.0 **** 0.06
26153 H 131.6627138062776 114.24954607433179 15.95377234514251 H 0.0 **** 0.06
26154 H 131.2731995595777 113.8675870282261 14.258298088635001 H 0.0 **** 0.06
26155 H 132.7485808541568 114.78418613087985 14.648248065266728 H 0.0 **** 0.06
26156 C 49.50444106172513 40.623457525732675 21.47858907823462 C 0.0 **** -0.24
26157 H 48.85359727949077 40.22056303383317 22.2552250978178 H 0.0 **** 0.06
26158 H 49.11771693596306 40.34128346883654 20.49918603138326 H 0.0 **** 0.06
26159 H 50.50971307919417 40.21998625625565 21.602525336529 H 0.0 **** 0.06
26160 H 49.53659816543535 41.709951280753074 21.55875948949887 H 0.0 **** 0.06
26161 C 78.21939629890356 108.62916919963115 17.60872685023662 C 0.0 **** -0.24
26162 H 77.7460681997737 109.61062142894397 17.625372242827666 H 0.0 **** 0.06
26163 H 77.86495708361403 108.07066478833998 16.74212443389257 H 0.0 **** 0.06
26164 H 77.96375881128567 108.08763944086103 18.51972140362855 H 0.0 **** 0.06
26165 H 79.30020087013848 108.74865231366441 17.5483428167787 H 0.0 **** 0.06
26166 C 13.30845421284154 64.05520941034237 6.265291205995535 C 0.0 **** -0.24
26167 H 14.19750641828557 63.52000451166663 5.92913791418005 H 0.0 **** 0.06
26168 H 12.555521298047381 64.03858847575361 5.476842180247601 H 0.0 **** 0.06
26169 H 13.571555828235319 65.08753286793325 6.495212639751006 H 0.0 **** 0.06
26170 H 12.910517457587744 63.57366386116303 7.158471076151216 H 0.0 **** 0.06
26171 C 4.043940763654973 91.74838903858141 75.29989166517142 C 0.0 **** -0.24
26172 H 3.3215701613622173 91.07151745123748 75.75776249780374 H 0.0 **** 0.06
26173 H 5.0332029707087145 91.56016445180344 75.71859431824386 H 0.0 **** 0.06
26174 H 3.7540374649603905 92.77943073211651 75.50343572636969 H 0.0 **** 0.06
26175 H 4.065563927471203 91.58152102494543 74.22354529532757 H 0.0 **** 0.06
26176 C 7.593513693880482 61.41653503375957 20.753125639713907 C 0.0 **** -0.24
26177 H 7.519069088864512 61.26148449993221 19.677640489287477 H 0.0 **** 0.06
26178 H 8.597321428160228 61.15599884109098 21.08943949694138 H 0.0 **** 0.06
26179 H 6.863871177593126 60.78620968256837 21.262191299448908 H 0.0 **** 0.06
26180 H 7.392587012128786 62.46312440779192 20.983525824470185 H 0.0 **** 0.06
26181 C 117.1822275416202 56.73736626567354 123.02253818209141 C 0.0 **** -0.24
26182 H 117.89348304780094 57.27413568921624 122.39458654125525 H 0.0 **** 0.06
26183 H 116.67934642817369 57.441221104360025 123.68662783710218 H 0.0 **** 0.06
26184 H 117.71242608025892 55.99259384398556 123.6169325441522 H 0.0 **** 0.06
26185 H 116.44368387389886 56.24045605496855 122.3929434032793 H 0.0 **** 0.06
26186 C 43.606161247568174 45.00800923425231 52.15001189384684 C 0.0 **** -0.24
26187 H 44.00999725812528 44.980302678493075 51.13755008046708 H 0.0 **** 0.06
26188 H 44.2151073229945 44.37900242485608 52.80081698088131 H 0.0 **** 0.06
26189 H 42.58086939116975 44.63855944270685 52.1422977864415 H 0.0 **** 0.06
26190 H 43.62016742931124 46.03359820808305 52.51872606466368 H 0.0 **** 0.06
26191 C 50.30866475602055 30.875783465238754 54.183638447674 C 0.0 **** -0.24
26192 H 49.85495482054466 29.887953078595757 54.27168130239163 H 0.0 **** 0.06
26193 H 50.92697046822903 30.911977719828812 53.286188099755236 H 0.0 **** 0.06
26194 H 50.92736081745774 31.070603146688683 55.059166573683356 H 0.0 **** 0.06
26195 H 49.52493833457997 31.630290111822276 54.11682772729786 H 0.0 **** 0.06
26196 C 71.68347091693636 51.484727209352656 135.27681485354185 C 0.0 **** -0.24
26197 H 71.73324644906353 51.198031184412784 136.32710187734145 H 0.0 **** 0.06
26198 H 70.91388753854233 50.89692588329649 134.7757668320885 H 0.0 **** 0.06
26199 H 72.6481463521697 51.300693290027766 134.80459789801483 H 0.0 **** 0.06
26200 H 71.43838750549344 52.54449936825172 135.2016404668449 H 0.0 **** 0.06
26201 C 124.74414778949347 40.55902980927188 65.397447002158 C 0.0 **** -0.24
26202 H 124.8468798963367 41.59420924476936 65.07017530171981 H 0.0 **** 0.06
26203 H 123.79897291164605 40.437602415288524 65.92636655058323 H 0.0 **** 0.06
26204 H 125.5688679062988 40.306055235073714 66.06338441197494 H 0.0 **** 0.06
26205 H 124.76299574835565 39.901073998073684 64.52898287597287 H 0.0 **** 0.06
26206 C 124.60224269313485 1.8783452103946274 84.34428727980549 C 0.0 **** -0.24
26207 H 123.5495243395644 1.7541416679073905 84.59759854355278 H 0.0 **** 0.06
26208 H 125.1618166342919 1.0054314657400027 84.6809973596805 H 0.0 **** 0.06
26209 H 124.99001122799261 2.7710792283352816 84.83396733161135 H 0.0 **** 0.06
26210 H 124.70580485593757 1.9821299729928796 83.26342293107929 H 0.0 **** 0.06
26211 C 39.182901403501745 18.91284780337 24.463102933873017 C 0.0 **** -0.24
26212 H 38.91632752578661 19.104535754169916 25.50224591581312 H 0.0 **** 0.06
26213 H 38.500237598919256 18.174346704950636 24.042601654991017 H 0.0 **** 0.06
26214 H 40.204267391831195 18.533182370348555 24.41503204667282 H 0.0 **** 0.06
26215 H 39.11276225716409 19.839846776015662 23.893863551059667 H 0.0 **** 0.06
26216 C 116.2974460122966 109.17472777991227 50.276511253126785 C 0.0 **** -0.24
26217 H 115.56159379497697 109.97921407984347 50.299563814351416 H 0.0 **** 0.06
26218 H 116.56426745598472 108.9565131767971 49.24311070042398 H 0.0 **** 0.06
26219 H 115.8743710867137 108.28293404340047 50.739578882458034 H 0.0 **** 0.06
26220 H 117.18732293560171 109.48226700273108 50.82519305739032 H 0.0 **** 0.06
26221 C 6.943837187750603 2.7983052541909785 95.73194004056927 C 0.0 **** -0.24
26222 H 6.729578932813354 3.706612273880353 96.29494608923028 H 0.0 **** 0.06
26223 H 6.898373887633198 3.0134511931302086 94.66442078164249 H 0.0 **** 0.06
26224 H 6.207085267160409 2.0342655228201636 95.98073508628042 H 0.0 **** 0.06
26225 H 7.940898925609019 2.4391643518115416 95.98841967283505 H 0.0 **** 0.06
26226 C 123.64834534693267 55.02234737956459 71.05800379583081 C 0.0 **** -0.24
26227 H 124.68073237245926 54.99620839131825 70.70918027533693 H 0.0 **** 0.06
26228 H 123.6265510662306 55.31683045552023 72.10670810923357 H 0.0 **** 0.06
26229 H 123.20383289928141 54.033086981336794 70.94885888310445 H 0.0 **** 0.06
26230 H 123.0827715511059 55.74163598270587 70.46550885249965 H 0.0 **** 0.06
26231 C 33.08293937515771 116.54844482017228 25.019722848519677 C 0.0 **** -0.24
26232 H 32.29568962793559 117.21974585938011 24.6784476585799 H 0.0 **** 0.06
26233 H 33.2513084034523 115.77496400288729 24.270501685891702 H 0.0 **** 0.06
26234 H 32.78208189962851 116.08476183798427 25.95968985722135 H 0.0 **** 0.06
26235 H 34.001632924537546 117.11417473172949 25.172224830116534 H 0.0 **** 0.06
26236 C 70.39932312204724 86.87129831560624 69.27221263844591 C 0.0 **** -0.24
26237 H 69.88785506311183 87.83426668601264 69.27705438791808 H 0.0 **** 0.06
26238 H 70.03955775417793 86.27329122342962 68.43513352445879 H 0.0 **** 0.06
26239 H 70.19708784772166 86.34841222231572 70.20608040801783 H 0.0 **** 0.06
26240 H 71.47290030279652 87.03149115111366 69.16966321570422 H 0.0 **** 0.06
26241 C 94.39521933170028 53.387316447590194 16.391050257912397 C 0.0 **** -0.24
26242 H 93.43214626507762 53.02732823351383 16.026585031995438 H 0.0 **** 0.06
26243 H 95.195844894907 52.94342734527754 15.798838079350674 H 0.0 **** 0.06
26244 H 94.51651395538687 53.10485139252805 17.436123510235262 H 0.0 **** 0.06
26245 H 94.4343237837245 54.47288378347923 16.300864540076688 H 0.0 **** 0.06
26246 C 36.92357657430074 59.95787874932128 85.48169872889443 C 0.0 **** -0.24
26247 H 36.39925688118353 59.6683626944002 84.57107126982856 H 0.0 **** 0.06
26248 H 37.486005234246676 59.104466518060704 85.86344698750375 H 0.0 **** 0.06
26249 H 36.20027077090546 60.28105932882305 86.23000018223732 H 0.0 **** 0.06
26250 H 37.609755289167964 60.77546786946573 85.26166271933783 H 0.0 **** 0.06
26251 C 55.58982048901021 88.18259616709787 53.82452640750792 C 0.0 **** -0.24
26252 H 54.707571527493826 87.55945937823267 53.968544954048 H 0.0 **** 0.06
26253 H 56.441042278288535 87.73153411240324 54.335021828725914 H 0.0 **** 0.06
26254 H 55.403923753710046 89.17538904170058 54.23450297005557 H 0.0 **** 0.06
26255 H 55.80528355765716 88.26386601547023 52.759115247005184 H 0.0 **** 0.06
26256 C 102.5097510320196 76.02359986328412 116.19738595420202 C 0.0 **** -0.24
26257 H 102.50604522345458 76.70056834750707 115.3433853817755 H 0.0 **** 0.06
26258 H 103.53839603070914 75.80342896772598 116.48269683721867 H 0.0 **** 0.06
26259 H 101.99996387162336 75.09765730846959 115.9284722765889 H 0.0 **** 0.06
26260 H 101.9920412433543 76.49259588392948 117.03379096600685 H 0.0 **** 0.06
26261 C 22.352826232894728 46.79868167250359 64.10239194376985 C 0.0 **** -0.24
26262 H 23.343991848489587 46.55319112717112 63.721176556201925 H 0.0 **** 0.06
26263 H 21.713315546667474 47.1117553605757 63.276726734292936 H 0.0 **** 0.06
26264 H 22.43289372116049 47.60845979832759 64.82746134435381 H 0.0 **** 0.06
26265 H 21.92185311874008 45.92100647079455 64.58362001363808 H 0.0 **** 0.06
26266 C 69.19521004077501 105.88579405631592 59.77731017787177 C 0.0 **** -0.24
26267 H 68.56659105431987 105.86901888945269 60.66736231335496 H 0.0 **** 0.06
26268 H 69.79349156131642 106.79752321936364 59.771808439989286 H 0.0 **** 0.06
26269 H 68.56605369145905 105.85822789970567 58.88793599736702 H 0.0 **** 0.06
26270 H 69.85598871590467 105.0180172116074 59.783228469379225 H 0.0 **** 0.06
26271 C 41.63610907398907 3.3386812811357345 133.3688347471614 C 0.0 **** -0.24
26272 H 42.10266053318185 2.3676637307799524 133.5353962171296 H 0.0 **** 0.06
26273 H 40.74170054728282 3.212223086536312 132.75850222223514 H 0.0 **** 0.06
26274 H 42.33736560805414 3.9953006953056445 132.85469639942053 H 0.0 **** 0.06
26275 H 41.3622644685963 3.7794161859547444 134.32763136657184 H 0.0 **** 0.06
26276 C 27.164689851053538 17.442207868330044 30.990839920912777 C 0.0 **** -0.24
26277 H 26.133354143305382 17.65200249848506 30.70760693732015 H 0.0 **** 0.06
26278 H 27.37901384538918 16.386574598826073 30.824503871892375 H 0.0 **** 0.06
26279 H 27.307530799107212 17.680914901589517 32.04456543548059 H 0.0 **** 0.06
26280 H 27.838425744789106 18.04903915587083 30.385371650814477 H 0.0 **** 0.06
26281 C 122.62671158100672 74.99101933899739 114.7793801703775 C 0.0 **** -0.24
26282 H 121.72195485791889 75.4324434880414 114.36240413060256 H 0.0 **** 0.06
26283 H 122.83241934535673 75.43579756882896 115.75328916448964 H 0.0 **** 0.06
26284 H 123.4649281279615 75.17898757437149 114.10962950728191 H 0.0 **** 0.06
26285 H 122.48661352251057 73.91567153514266 114.8947957372564 H 0.0 **** 0.06
26286 C 24.62735227657197 78.26062679830332 65.44119404767227 C 0.0 **** -0.24
26287 H 24.187285338788797 77.27243478736256 65.5789683226088 H 0.0 **** 0.06
26288 H 24.020831799693838 78.83250926793932 64.73876083063128 H 0.0 **** 0.06
26289 H 25.638224217643653 78.15560243354577 65.04703307740294 H 0.0 **** 0.06
26290 H 24.662337822931136 78.77899085814181 66.39873032090075 H 0.0 **** 0.06
26291 C 31.221918864077878 85.20122609320043 105.53943821348264 C 0.0 **** -0.24
26292 H 30.729497709403503 85.07678995545166 106.5043823368438 H 0.0 **** 0.06
26293 H 32.220883868580955 85.60912317839251 105.69220905020325 H 0.0 **** 0.06
26294 H 30.641147592394205 85.88476032082445 104.92027689285322 H 0.0 **** 0.06
26295 H 31.295653389039018 84.23355614356774 105.04270169189238 H 0.0 **** 0.06
26296 C 43.821364931213076 125.02004145539587 25.731569117002977 C 0.0 **** -0.24
26297 H 42.752952866876015 125.22476499343475 25.654653237049303 H 0.0 **** 0.06
26298 H 44.17295950297724 124.57225915860886 24.802084672758895 H 0.0 **** 0.06
26299 H 43.999549666135636 124.3325002628142 26.55719450343227 H 0.0 **** 0.06
26300 H 44.35663460038376 125.95225859880816 25.912617869484194 H 0.0 **** 0.06
26301 C 101.05107956376943 73.86268006885169 118.94628021912774 C 0.0 **** -0.24
26302 H 100.55103014171692 74.22364592599801 118.04749754805869 H 0.0 **** 0.06
26303 H 101.75714099685325 74.61595514501509 119.2959857818089 H 0.0 **** 0.06
26304 H 101.58607406843765 72.94067147385995 118.71846209421983 H 0.0 **** 0.06
26305 H 100.31020297523943 73.67019513754884 119.7217900252665 H 0.0 **** 0.06
26306 C 2.8350332000909475 52.74221512869768 23.85622030971672 C 0.0 **** -0.24
26307 H 3.8053626242005123 53.140617246196086 23.559161995438018 H 0.0 **** 0.06
26308 H 2.2179250621720996 52.591240541545304 22.970285041038977 H 0.0 **** 0.06
26309 H 2.3431625973015855 53.44847992182682 24.525884004889747 H 0.0 **** 0.06
26310 H 2.9746058405627025 51.79137681667221 24.369600285308195 H 0.0 **** 0.06
26311 C 86.6636206542561 78.04460422273766 29.1266121489665 C 0.0 **** -0.24
26312 H 86.65186085538983 78.69617995132782 28.2534845582324 H 0.0 **** 0.06
26313 H 87.40301444401723 77.2565888300839 28.981861844551077 H 0.0 **** 0.06
26314 H 85.67717038202471 77.59863727877064 29.259869353255056 H 0.0 **** 0.06
26315 H 86.921111363835 78.62705121429977 30.011724084551588 H 0.0 **** 0.06
26316 C 6.946612493669477 72.5685822543363 95.41355516208517 C 0.0 **** -0.24
26317 H 6.857777467928656 73.02470446169936 96.39885606518453 H 0.0 **** 0.06
26318 H 7.309029889936994 73.31036859305674 94.7013004622849 H 0.0 **** 0.06
26319 H 5.971683465692536 72.20177901772641 95.09351171495308 H 0.0 **** 0.06
26320 H 7.649887006581309 71.73640374117684 95.4609155021862 H 0.0 **** 0.06
26321 C 79.87048945369884 45.78988176794208 75.52682381925374 C 0.0 **** -0.24
26322 H 80.37822848920442 46.56884470270974 76.09547474265351 H 0.0 **** 0.06
26323 H 80.46729082886353 45.53023630661828 74.65217906993523 H 0.0 **** 0.06
26324 H 78.89424617616487 46.15314020681204 75.20624868549874 H 0.0 **** 0.06
26325 H 79.74177913134565 44.90837351814061 76.1542231186915 H 0.0 **** 0.06
26326 C 67.1840756700056 16.25023462713608 126.59942288433395 C 0.0 **** -0.24
26327 H 66.46163624356194 15.470653534035932 126.35755585650347 H 0.0 **** 0.06
26328 H 67.5977377437224 16.067822563176378 127.59137530329306 H 0.0 **** 0.06
26329 H 66.68863675058071 17.221415578553376 126.58604632493143 H 0.0 **** 0.06
26330 H 67.98747571119128 16.242148889383884 125.86305949571909 H 0.0 **** 0.06
26331 C 59.439100275917156 57.96854668490968 27.414371083209716 C 0.0 **** -0.24
26332 H 59.52450090157487 56.97986542718732 27.867352597678007 H 0.0 **** 0.06
26333 H 58.39474411900159 58.282059470967695 27.424273461331595 H 0.0 **** 0.06
26334 H 59.79735896753985 57.92910621115938 26.386373439720856 H 0.0 **** 0.06
26335 H 60.03753551785347 58.68084884120469 27.982046998759017 H 0.0 **** 0.06
26336 C 74.33991369472638 3.5645380809447715 53.36265602364256 C 0.0 **** -0.24
26337 H 73.38407524001016 3.0738680116622277 53.546386247707886 H 0.0 **** 0.06
26338 H 74.6717498451683 4.063284499211875 54.274549629533055 H 0.0 **** 0.06
26339 H 74.22282276359367 4.300887567028326 52.568074264493646 H 0.0 **** 0.06
26340 H 75.07860548454468 2.82170281705271 53.065315866130334 H 0.0 **** 0.06
26341 C 25.001786018650165 133.71947569161733 3.7236688983690556 C 0.0 **** -0.24
26342 H 25.299254672349264 134.70485761548258 4.084300277670366 H 0.0 **** 0.06
26343 H 25.825073087893657 133.27385017486245 3.1653783280793846 H 0.0 **** 0.06
26344 H 24.13226717765555 133.81883625862793 3.0726999293800645 H 0.0 **** 0.06
26345 H 24.749916362921027 133.08324176290012 4.5717603427226265 H 0.0 **** 0.06
26346 C 111.42963214413342 118.40606175058156 27.32267684250047 C 0.0 **** -0.24
26347 H 111.62292891901387 117.6818236925337 26.531983724685006 H 0.0 **** 0.06
26348 H 111.99304072367013 119.31846869268443 27.125980554660543 H 0.0 **** 0.06
26349 H 111.7389523566153 117.9875907434477 28.281455322959516 H 0.0 **** 0.06
26350 H 110.3643111381661 118.63478890991567 27.35302654921705 H 0.0 **** 0.06
26351 C 62.67350480453669 20.645606801826318 17.379318003371083 C 0.0 **** -0.24
26352 H 62.62084353995206 19.742242231331147 17.986169105203615 H 0.0 **** 0.06
26353 H 63.67512079575906 21.070157677152324 17.446235978923454 H 0.0 **** 0.06
26354 H 61.94534725920147 21.371127836925723 17.742258616604502 H 0.0 **** 0.06
26355 H 62.452938902750034 20.397447133106027 16.34064935156141 H 0.0 **** 0.06
26356 C 108.31163639620823 48.25300973043946 26.934012596246475 C 0.0 **** -0.24
26357 H 107.74625740077272 48.4311633517312 27.84789271394405 H 0.0 **** 0.06
26358 H 108.97817593736681 49.09575141743649 26.749113765791805 H 0.0 **** 0.06
26359 H 107.62161933750673 48.145097848603285 26.096332102253115 H 0.0 **** 0.06
26360 H 108.8987860793425 47.34083865956676 27.041153891454428 H 0.0 **** 0.06
26361 C 45.38360107953239 121.7460178943046 21.967142702613017 C 0.0 **** -0.24
26362 H 44.98833980292319 121.29048115435936 21.058881236636154 H 0.0 **** 0.06
26363 H 45.40621905252901 121.00453844259908 22.76525151335055 H 0.0 **** 0.06
26364 H 44.74718804647384 122.57998991568334 22.26212262545637 H 0.0 **** 0.06
26365 H 46.39394506047985 122.10945679060971 21.77963465514199 H 0.0 **** 0.06
26366 C 79.89099090360457 79.40427579554404 53.112179180586395 C 0.0 **** -0.24
26367 H 80.74733014346025 79.5719867191035 53.76573043034625 H 0.0 **** 0.06
26368 H 79.72731208083971 80.28788140434324 52.49499569917123 H 0.0 **** 0.06
26369 H 79.00447355946854 79.21324482550034 53.71688342855987 H 0.0 **** 0.06
26370 H 80.08618821762295 78.5443738089059 52.47086983505437 H 0.0 **** 0.06
26371 C 130.35121789388188 72.02054411842653 54.62263680743769 C 0.0 **** -0.24
26372 H 131.09301835256494 71.49289287645377 54.02390626319607 H 0.0 **** 0.06
26373 H 129.40692072568248 71.4756951603232 54.59432442369325 H 0.0 **** 0.06
26374 H 130.2047760652533 73.02257842857239 54.21863046655608 H 0.0 **** 0.06
26375 H 130.70001161708382 72.09164195205346 55.652924681438776 H 0.0 **** 0.06
26376 C 8.21320247011306 127.30696160276196 97.69386493072469 C 0.0 **** -0.24
26377 H 8.082750519520914 126.8942116626489 96.69356256047266 H 0.0 **** 0.06
26378 H 9.244491073959011 127.15858943141072 98.01611582223086 H 0.0 **** 0.06
26379 H 7.539836063714688 126.80149125142754 98.38612678195244 H 0.0 **** 0.06
26380 H 7.986683101506628 128.37329308621625 97.67982119162579 H 0.0 **** 0.06
26381 C 119.6730078097562 73.10873262812174 85.25385895651368 C 0.0 **** -0.24
26382 H 120.43690489563159 73.57009375040025 85.8795459457052 H 0.0 **** 0.06
26383 H 119.48734000515867 72.09148356476052 85.59742675828163 H 0.0 **** 0.06
26384 H 120.01659679838434 73.0873886055966 84.21948614320796 H 0.0 **** 0.06
26385 H 118.75292550139477 73.68860281890892 85.31881370507102 H 0.0 **** 0.06
26386 C 16.347358318712054 108.7037980649917 91.1365264701144 C 0.0 **** -0.24
26387 H 17.15887511673361 108.75912001846638 90.41159337967798 H 0.0 **** 0.06
26388 H 15.395954810253443 108.61357994480176 90.61124543209782 H 0.0 **** 0.06
26389 H 16.34252369577746 109.60726390381996 91.74540257855887 H 0.0 **** 0.06
26390 H 16.49207342661316 107.83383614722507 91.77761608324562 H 0.0 **** 0.06
26391 C 60.4403354417214 27.52236299394731 112.13575093797994 C 0.0 **** -0.24
26392 H 59.841585897490745 28.165456903858548 112.78252553094003 H 0.0 **** 0.06
26393 H 59.81885170182073 26.71138621673208 111.75600011011502 H 0.0 **** 0.06
26394 H 61.271420171187714 27.108027260197687 112.70633934202817 H 0.0 **** 0.06
26395 H 60.827619062865665 28.10618505097164 111.30144811013147 H 0.0 **** 0.06
26396 C 89.44850995541593 49.13263685534574 12.228793318514676 C 0.0 **** -0.24
26397 H 89.96593457888211 48.58865923630023 11.439301002597233 H 0.0 **** 0.06
26398 H 89.59020710679758 50.203993354718705 12.083816536221661 H 0.0 **** 0.06
26399 H 89.85456610299396 48.84086706060579 13.19728536723764 H 0.0 **** 0.06
26400 H 88.38433899978779 48.89910622202301 12.19558665969663 H 0.0 **** 0.06
26401 C 119.67131864813064 31.386035854889315 11.22816371427081 C 0.0 **** -0.24
26402 H 119.17970596297423 31.09736714537995 12.157321083656171 H 0.0 **** 0.06
26403 H 120.33514289410556 30.584135370344 10.905316943300779 H 0.0 **** 0.06
26404 H 120.25158319090457 32.29425816811448 11.391987907857338 H 0.0 **** 0.06
26405 H 118.91999539976388 31.5681013692774 10.460596436343824 H 0.0 **** 0.06
26406 C 65.96927821382594 34.86211018207041 34.57060186440981 C 0.0 **** -0.24
26407 H 66.52294767244344 35.538106324848556 35.22298553586984 H 0.0 **** 0.06
26408 H 66.65599429718776 34.398079561625195 33.862775856421365 H 0.0 **** 0.06
26409 H 65.2104653220439 35.423886997072536 34.02570198674596 H 0.0 **** 0.06
26410 H 65.48937955382154 34.09015467483322 35.171016694812806 H 0.0 **** 0.06
26411 C 3.5283284396614647 121.29509741952202 118.27461894340948 C 0.0 **** -0.24
26412 H 4.010044507368519 120.3751820552479 117.94416866538714 H 0.0 **** 0.06
26413 H 3.4906489844047712 121.31274545667864 119.36427389455125 H 0.0 **** 0.06
26414 H 2.5154548239508756 121.33837941461766 117.8744530267603 H 0.0 **** 0.06
26415 H 4.097927790513012 122.15225992303476 117.9166272562342 H 0.0 **** 0.06
26416 C 56.87551247885034 50.11937082396368 38.410130509552246 C 0.0 **** -0.24
26417 H 56.257648417154996 49.60086929267206 39.143225470464785 H 0.0 **** 0.06
26418 H 56.81869272075545 51.19462719730255 38.58393320947037 H 0.0 **** 0.06
26419 H 56.51466882222098 49.8936694451824 37.406575422475896 H 0.0 **** 0.06
26420 H 57.90896426298775 49.78910458286997 38.50705629103848 H 0.0 **** 0.06
26421 C 134.61725037025025 81.96790777601797 94.73527818399742 C 0.0 **** -0.24
26422 H 134.519002074965 82.40226856755606 93.74065312204752 H 0.0 **** 0.06
26423 H 133.63727118252666 81.65104820588914 95.09208326348431 H 0.0 **** 0.06
26424 H 135.03009364150805 82.7109961474336 95.41675974509474 H 0.0 **** 0.06
26425 H 135.28443717521782 81.10616595256667 94.69042358383854 H 0.0 **** 0.06
26426 C 130.0831086535535 83.19457296070073 128.58027603533935 C 0.0 **** -0.24
26427 H 130.26778568536355 82.1605599696233 128.28938674212563 H 0.0 **** 0.06
26428 H 129.49222467125105 83.21392561397153 129.49607713880386 H 0.0 **** 0.06
26429 H 129.53724139176973 83.70301537275549 127.78500479428197 H 0.0 **** 0.06
26430 H 131.03319760387672 83.70060192861382 128.74962390218582 H 0.0 **** 0.06
26431 C 31.369044223342314 63.95630581375109 14.185561143679308 C 0.0 **** -0.24
26432 H 32.27814734393499 64.55829344480848 14.177045957901555 H 0.0 **** 0.06
26433 H 30.922586459982952 63.9864190064486 15.179313480953397 H 0.0 **** 0.06
26434 H 31.613369129885086 62.92600340224094 13.927384204164582 H 0.0 **** 0.06
26435 H 30.663189718238073 64.35473598105806 13.457195951615574 H 0.0 **** 0.06
26436 C 8.247965167667331 70.85038018603419 73.5691337305699 C 0.0 **** -0.24
26437 H 8.18126034638314 70.08492976833254 72.79545147932095 H 0.0 **** 0.06
26438 H 8.596194770050346 70.3982708181787 74.49786260924209 H 0.0 **** 0.06
26439 H 7.265103226490538 71.29436433941483 73.72734100306099 H 0.0 **** 0.06
26440 H 8.95004666128608 71.62314502180249 73.25499176001804 H 0.0 **** 0.06
26441 C 133.8943141147243 111.23398932842747 63.70807328513813 C 0.0 **** -0.24
26442 H 133.21323418482032 111.92878823697527 63.21740574630026 H 0.0 **** 0.06
26443 H 134.52832188172067 111.77878628524232 64.40704499653464 H 0.0 **** 0.06
26444 H 134.5162786420892 110.74536901916147 62.95727342035099 H 0.0 **** 0.06
26445 H 133.31905755883724 110.4815443056712 64.2476179534513 H 0.0 **** 0.06
26446 C 14.693618508661757 127.19579141912459 93.75089384399809 C 0.0 **** -0.24
26447 H 15.586085046056724 126.59137831917423 93.91091357518373 H 0.0 **** 0.06
26448 H 14.983266051140788 128.23192819009438 93.57207545195588 H 0.0 **** 0.06
26449 H 14.057237311155546 127.14404371689596 94.63541365618265 H 0.0 **** 0.06
26450 H 14.148065469031565 126.81653828116578 92.88728110532207 H 0.0 **** 0.06
26451 C 11.493806873212492 2.4144595855211612 134.51181647904576 C 0.0 **** -0.24
26452 H 11.022405377475877 1.4671223780041487 134.77482967499924 H 0.0 **** 0.06
26453 H 12.572679575652202 2.278006431979211 134.44579953439148 H 0.0 **** 0.06
26454 H 11.26598664424732 3.158093413731688 135.27615395760648 H 0.0 **** 0.06
26455 H 11.11055621332305 2.754652431112305 133.54946215198567 H 0.0 **** 0.06
26456 C 86.53704318463538 18.91970240466975 87.36494598926248 C 0.0 **** -0.24
26457 H 86.53414025249823 18.03853098514668 88.00681870357602 H 0.0 **** 0.06
26458 H 86.01109253168939 19.733424564422165 87.86325128892653 H 0.0 **** 0.06
26459 H 86.03606419151735 18.685108779772264 86.42515559068477 H 0.0 **** 0.06
26460 H 87.5652216983103 19.218816348441862 87.16373016378802 H 0.0 **** 0.06
26461 C 80.72467932243485 84.05176305858718 7.147157767234912 C 0.0 **** -0.24
26462 H 81.41343407075507 83.824030553192 7.961189032665121 H 0.0 **** 0.06
26463 H 79.99694926298041 83.24626242651408 7.051013428241774 H 0.0 **** 0.06
26464 H 81.28267194366114 84.15052041132522 6.216268267096012 H 0.0 **** 0.06
26465 H 80.20597362719624 84.98615794994714 7.361537455724623 H 0.0 **** 0.06
26466 C 100.34302714530112 134.5404954260691 52.40416344953539 C 0.0 **** -0.24
26467 H 101.42665057037814 134.62240016496477 52.48928073579012 H 0.0 **** 0.06
26468 H 99.88976804678877 134.69006030379438 53.3843259966298 H 0.0 **** 0.06
26469 H 100.08200147091026 133.55053237213727 52.0294317676948 H 0.0 **** 0.06
26470 H 99.97580303888785 135.29900855696718 51.712888290377094 H 0.0 **** 0.06
26471 C 127.98108242858743 10.652085866242146 64.54615321242487 C 0.0 **** -0.24
26472 H 127.16361082426623 11.364564558307734 64.65880476935963 H 0.0 **** 0.06
26473 H 128.8812666722315 11.180608927630715 64.232472226159 H 0.0 **** 0.06
26474 H 127.71474883603699 9.909018152834108 63.794990901916606 H 0.0 **** 0.06
26475 H 128.16375869851984 10.155815698930894 65.49950224770059 H 0.0 **** 0.06
26476 C 70.97702162988907 125.91430119264126 83.28703305368997 C 0.0 **** -0.24
26477 H 71.84853766635848 126.14811153174143 82.67494350099831 H 0.0 **** 0.06
26478 H 71.29027595912319 125.34279530515384 84.16139617115925 H 0.0 **** 0.06
26479 H 70.27039751218962 125.32572678042301 82.70256188736299 H 0.0 **** 0.06
26480 H 70.50009721139176 126.83918113870475 83.60847225058811 H 0.0 **** 0.06
26481 C 136.51410308827536 32.32380432669493 68.12184116864103 C 0.0 **** -0.24
26482 H 137.50795056091982 31.934844490860755 67.89762126666729 H 0.0 **** 0.06
26483 H 135.91787530520196 32.34517826114072 67.2090554902246 H 0.0 **** 0.06
26484 H 136.60183091474192 33.33364662997016 68.52242250300544 H 0.0 **** 0.06
26485 H 136.030798262034 31.68216315518626 68.85759523431007 H 0.0 **** 0.06
26486 C 23.645962502904467 4.583422602486223 9.203439127375162 C 0.0 **** -0.24
26487 H 24.655615812047728 4.278520411409829 9.476187818863366 H 0.0 **** 0.06
26488 H 22.935161301976763 4.162438910567687 9.914575857822513 H 0.0 **** 0.06
26489 H 23.415870330070334 4.2232147951681895 8.20110188096237 H 0.0 **** 0.06
26490 H 23.577390066245528 5.671601281516132 9.222677016742693 H 0.0 **** 0.06
26491 C 79.96823177168255 18.65810102333871 98.25300813874603 C 0.0 **** -0.24
26492 H 79.36874110438481 19.495239618611812 97.89441644156342 H 0.0 **** 0.06
26493 H 79.31521644600508 17.817419177322414 98.48748859111454 H 0.0 **** 0.06
26494 H 80.5109054910634 18.95793355218308 99.1489320769947 H 0.0 **** 0.06
26495 H 80.67815210153941 18.362847416132404 97.47980988732606 H 0.0 **** 0.06
26496 C 81.59993357333553 33.2236863962988 0.8532571030444274 C 0.0 **** -0.24
26497 H 80.57641340933594 32.874220053501176 0.716938284517596 H 0.0 **** 0.06
26498 H 81.8933927789638 33.829435032144886 -0.0044371162663310315 H 0.0 **** 0.06
26499 H 82.2675761012269 32.36621382607632 0.9392066323314339 H 0.0 **** 0.06
26500 H 81.66058959806139 33.82387726433819 1.7603743880105185 H 0.0 **** 0.06
26501 C 116.59903349182753 0.7212570470994812 8.88758804799619 C 0.0 **** -0.24
26502 H 117.01581361377487 -0.16370499957897877 8.40624763978633 H 0.0 **** 0.06
26503 H 117.11103078855615 1.6099123025515034 8.517518190634348 H 0.0 **** 0.06
26504 H 116.73496718265639 0.6461905533865213 9.966373061437366 H 0.0 **** 0.06
26505 H 115.53581688202641 0.7926044412398845 8.659338120521397 H 0.0 **** 0.06
26506 C 3.2999943506612794 133.39771033549783 92.96416004670357 C 0.0 **** -0.24
26507 H 3.6127834373458256 132.776256427764 93.80343479585758 H 0.0 **** 0.06
26508 H 2.3625624918471715 133.89692034842457 93.21139269373998 H 0.0 **** 0.06
26509 H 3.1576591228446773 132.77363646477679 92.08240752613631 H 0.0 **** 0.06
26510 H 4.066430570662192 134.1454829997059 92.7601732097263 H 0.0 **** 0.06
26511 C 5.253915249991678 25.64228841166465 78.03899289092101 C 0.0 **** -0.24
26512 H 4.718510101937454 25.13944190829733 77.23333117122417 H 0.0 **** 0.06
26513 H 4.6256327308814775 25.66931296919205 78.92993108408797 H 0.0 **** 0.06
26514 H 5.49567111671098 26.659591930111105 77.73335151231889 H 0.0 **** 0.06
26515 H 6.172564179855044 25.0992238685821 78.25851067500679 H 0.0 **** 0.06
26516 C 122.44616468146572 118.11056487172118 7.3100679043222385 C 0.0 **** -0.24
26517 H 122.12686431813316 118.79123314533547 8.098041223212249 H 0.0 **** 0.06
26518 H 122.23410319508807 118.55533261326318 6.33700073523147 H 0.0 **** 0.06
26519 H 121.90648759457375 117.1672050639882 7.404503434343667 H 0.0 **** 0.06
26520 H 123.516810659508 117.92730559804542 7.400058369348898 H 0.0 **** 0.06
26521 C 115.1078567342621 20.95732596003114 87.13432367604388 C 0.0 **** -0.24
26522 H 115.83015684900877 21.774014238175795 87.13021383745092 H 0.0 **** 0.06
26523 H 114.72255004683214 20.808318994608527 86.1255344251041 H 0.0 **** 0.06
26524 H 114.28549836368552 21.203052957138823 87.8056804972439 H 0.0 **** 0.06
26525 H 115.59557268776342 20.044031201161715 87.47654427696767 H 0.0 **** 0.06
26526 C 34.87448075628657 24.346294975533105 93.6425750857768 C 0.0 **** -0.24
26527 H 34.44799026178225 23.34664383775838 93.55829856588761 H 0.0 **** 0.06
26528 H 34.77656384214794 24.86539923658333 92.6891643120492 H 0.0 **** 0.06
26529 H 35.93018663313782 24.26908512188748 93.90754474748553 H 0.0 **** 0.06
26530 H 34.34598567953532 24.9029848806956 94.41535014096337 H 0.0 **** 0.06
26531 C 97.477847857543 96.52287396366364 12.501050596427188 C 0.0 **** -0.24
26532 H 97.0760149952339 95.60686009463373 12.067944367270481 H 0.0 **** 0.06
26533 H 96.79248247832138 96.89485749485196 13.262719564927643 H 0.0 **** 0.06
26534 H 97.59438749059474 97.27342897289122 11.719284165491345 H 0.0 **** 0.06
26535 H 98.4475738172917 96.31638952432128 12.953191913122296 H 0.0 **** 0.06
26536 C 32.557217446556706 57.99740165655432 99.32643277257284 C 0.0 **** -0.24
26537 H 32.99610187657271 58.28486972800032 98.37153352138591 H 0.0 **** 0.06
26538 H 32.6710899316887 58.814826861467054 100.03870039830633 H 0.0 **** 0.06
26539 H 33.06598038135303 57.110677596572145 99.70712276385518 H 0.0 **** 0.06
26540 H 31.498780095599727 57.77855839740798 99.18858495318187 H 0.0 **** 0.06
26541 C 107.80033917626332 101.22181734957681 19.436108703072733 C 0.0 **** -0.24
26542 H 108.60301092621188 101.15129912013755 20.17059786707901 H 0.0 **** 0.06
26543 H 106.84585087512076 101.3303325836574 19.950619697096386 H 0.0 **** 0.06
26544 H 107.78528296969057 100.31870722807547 18.82659951904344 H 0.0 **** 0.06
26545 H 107.96938359115876 102.08898810608405 18.796393137183884 H 0.0 **** 0.06
26546 C 92.47103484191796 104.59564280615172 38.85589876729273 C 0.0 **** -0.24
26547 H 92.1217154558247 103.59315911079113 38.60740229084655 H 0.0 **** 0.06
26548 H 93.13120240686101 104.95539641209751 38.06719086568887 H 0.0 **** 0.06
26549 H 93.0137296629697 104.56646282613707 39.800575911645524 H 0.0 **** 0.06
26550 H 91.61586282861707 105.26440355592223 38.94962130424892 H 0.0 **** 0.06
26551 C 6.051598139602618 45.95344591080925 118.94465354184078 C 0.0 **** -0.24
26552 H 6.793431290732428 45.16039589891844 119.03203351506582 H 0.0 **** 0.06
26553 H 5.537300718595873 46.076931670384 119.89814320010635 H 0.0 **** 0.06
26554 H 5.326835351815987 45.69014456363169 118.1734191906134 H 0.0 **** 0.06
26555 H 6.546419600507761 46.88587355571764 118.67487136673319 H 0.0 **** 0.06
26556 C 34.11924746108454 65.52106659457104 118.89080690036943 C 0.0 **** -0.24
26557 H 34.593280750415914 65.56091427388328 119.87124437387074 H 0.0 **** 0.06
26558 H 33.64017865773505 66.47789177618046 118.680731285325 H 0.0 **** 0.06
26559 H 33.36975872513713 64.73024317118988 118.8822064257855 H 0.0 **** 0.06
26560 H 34.873260054187824 65.31623743673146 118.13121289155998 H 0.0 **** 0.06
26561 C 65.3201201293614 75.81490239815832 120.24392234725403 C 0.0 **** -0.24
26562 H 65.23248282891717 75.11942906560495 121.07842854462113 H 0.0 **** 0.06
26563 H 64.40385871912038 76.40030012037619 120.16154128795138 H 0.0 **** 0.06
26564 H 65.47871544725567 75.25664912549558 119.32151850480398 H 0.0 **** 0.06
26565 H 66.16439604485105 76.48226962334513 120.4140610611327 H 0.0 **** 0.06
26566 C 32.46035441400065 87.35138455713248 81.83268572871094 C 0.0 **** -0.24
26567 H 32.215314011748376 87.18707237064784 80.78371826743296 H 0.0 **** 0.06
26568 H 32.05907070882779 88.31311092484691 82.15310243726344 H 0.0 **** 0.06
26569 H 33.54296179872557 87.34924075169327 81.95701468195136 H 0.0 **** 0.06
26570 H 32.02334854384438 86.55497036205067 82.43649566695052 H 0.0 **** 0.06
26571 C 44.870924606610686 124.0373317603528 19.200604781821596 C 0.0 **** -0.24
26572 H 45.912484905360174 123.99226306069897 18.883035890202848 H 0.0 **** 0.06
26573 H 44.28125063457 124.54549594968262 18.43742863028052 H 0.0 **** 0.06
26574 H 44.80156273775475 124.5860765014557 20.140273467845077 H 0.0 **** 0.06
26575 H 44.49032818739863 123.02649133491536 19.342213387030768 H 0.0 **** 0.06
26576 C 136.27777185965235 118.7022286053188 70.85454829104947 C 0.0 **** -0.24
26577 H 136.30104174765546 119.79002283885916 70.92176652809394 H 0.0 **** 0.06
26578 H 136.03402002463548 118.28315650884076 71.83030934704794 H 0.0 **** 0.06
26579 H 137.25389767342332 118.3376730455933 70.53515247950611 H 0.0 **** 0.06
26580 H 135.52137648203296 118.39968698710902 70.12962504427571 H 0.0 **** 0.06
26581 C 96.67356093928747 8.980901839160879 16.883230602169988 C 0.0 **** -0.24
26582 H 95.69941668421015 9.437595523395316 17.061022499716728 H 0.0 **** 0.06
26583 H 96.59253217189334 8.259482986865976 16.070771868572024 H 0.0 **** 0.06
26584 H 97.00732514083272 8.473268982471211 17.788861573337087 H 0.0 **** 0.06
26585 H 97.39296262577047 9.753681528313678 16.6142142815295 H 0.0 **** 0.06
26586 C 8.930804334598065 16.052861606361297 5.642439602350066 C 0.0 **** -0.24
26587 H 9.85124909280691 16.583930387095428 5.398553382379561 H 0.0 **** 0.06
26588 H 8.408627956344446 15.791210740883486 4.722249020931713 H 0.0 **** 0.06
26589 H 8.29327718066068 16.692429079407134 6.253557166031754 H 0.0 **** 0.06
26590 H 9.17112901949082 15.145241085082027 6.195365508687303 H 0.0 **** 0.06
26591 C 88.34452150936283 35.67941464233315 89.89719789158735 C 0.0 **** -0.24
26592 H 88.75593896975852 36.26392884585504 90.7202573623401 H 0.0 **** 0.06
26593 H 87.69669586922655 34.89759623813742 90.29634333316434 H 0.0 **** 0.06
26594 H 89.15801228564919 35.22487600787167 89.33278988832541 H 0.0 **** 0.06
26595 H 87.76665388897982 36.330440568661956 89.24157277340646 H 0.0 **** 0.06
26596 C 100.59830756594981 9.112476822803302 96.87730543161226 C 0.0 **** -0.24
26597 H 100.21937351534028 9.328331645770746 95.87778564965542 H 0.0 **** 0.06
26598 H 100.75798617782361 8.039226726604568 96.9807125475143 H 0.0 **** 0.06
26599 H 99.87402834061453 9.446600386245194 97.62004569559163 H 0.0 **** 0.06
26600 H 101.54182725053535 9.63679288642821 97.02786544719193 H 0.0 **** 0.06
26601 C 129.15669403058533 18.254419490345 88.2937250295692 C 0.0 **** -0.24
26602 H 129.37070802862732 17.424121890685534 88.96523368522026 H 0.0 **** 0.06
26603 H 129.65574291891608 19.153175748232236 88.6566099647057 H 0.0 **** 0.06
26604 H 128.08071576436916 18.42601483528763 88.25830067056285 H 0.0 **** 0.06
26605 H 129.51882201918724 18.01499950985398 87.29376679679325 H 0.0 **** 0.06
26606 C 89.56218977778217 2.991213185056722 52.98879765169164 C 0.0 **** -0.24
26607 H 89.13043173746478 2.24217382266238 53.65206988669917 H 0.0 **** 0.06
26608 H 89.04034326739142 2.9730573274954395 52.031844852110055 H 0.0 **** 0.06
26609 H 90.61799170528674 2.770910367889229 52.83120951867403 H 0.0 **** 0.06
26610 H 89.4611914820596 3.9780189864680437 53.440354632112886 H 0.0 **** 0.06
26611 C 47.89940189376273 126.24374961680007 104.00036891159425 C 0.0 **** -0.24
26612 H 47.005315972275525 125.62286866147048 103.93600037143096 H 0.0 **** 0.06
26613 H 47.710620529557445 127.20247434746892 103.51743356885078 H 0.0 **** 0.06
26614 H 48.72680477204267 125.74129389558591 103.50102964011268 H 0.0 **** 0.06
26615 H 48.15215628750548 126.40817494074332 105.04780033556591 H 0.0 **** 0.06
26616 C 57.87736521345607 9.646152192002774 94.63902440426074 C 0.0 **** -0.24
26617 H 58.96058094526188 9.683194833374273 94.75196046683982 H 0.0 **** 0.06
26618 H 57.42912302478942 9.265642348052666 95.55683334944496 H 0.0 **** 0.06
26619 H 57.621280941348516 8.987425318404291 93.80870648220241 H 0.0 **** 0.06
26620 H 57.49983430165992 10.648956269308144 94.43771250340538 H 0.0 **** 0.06
26621 C 80.07797041241092 15.46265266655712 68.97861684266856 C 0.0 **** -0.24
26622 H 80.67493086202326 15.867187577110712 69.79600462763365 H 0.0 **** 0.06
26623 H 80.16694203081326 14.375826918351294 68.96789500286133 H 0.0 **** 0.06
26624 H 80.4375054988577 15.866405103175339 68.03234809912018 H 0.0 **** 0.06
26625 H 79.03336301502878 15.741150610040137 69.11872878474983 H 0.0 **** 0.06
26626 C 135.69150690114404 23.672781465214825 44.967521674637396 C 0.0 **** -0.24
26627 H 136.47480491338226 22.96006154057227 44.71123559729648 H 0.0 **** 0.06
26628 H 136.10622706714236 24.680486128514815 44.97542929885503 H 0.0 **** 0.06
26629 H 135.2937202143599 23.43608527578158 45.953997064445275 H 0.0 **** 0.06
26630 H 134.89127540969156 23.61449291599061 44.22942473795263 H 0.0 **** 0.06
26631 C 92.85051404463118 58.03314581798256 33.799454699569935 C 0.0 **** -0.24
26632 H 92.37527981018326 57.11184624085939 34.13581842911893 H 0.0 **** 0.06
26633 H 92.47526898812322 58.295066904341695 32.810549487310254 H 0.0 **** 0.06
26634 H 93.92948037441403 57.88862390124979 33.75199840636131 H 0.0 **** 0.06
26635 H 92.6224337637264 58.836227340171206 34.50053139510527 H 0.0 **** 0.06
26636 C 74.01590567041671 27.649937975091845 55.46041236238433 C 0.0 **** -0.24
26637 H 74.8220105121809 27.047964606361404 55.03923760404763 H 0.0 **** 0.06
26638 H 74.25322267274353 28.70689044817607 55.34386570576601 H 0.0 **** 0.06
26639 H 73.90437195362745 27.416710664734296 56.51982793913248 H 0.0 **** 0.06
26640 H 73.08472399028648 27.425295219489456 54.93909726589372 H 0.0 **** 0.06
26641 C 129.49275111629495 111.21636778751312 55.396310654429215 C 0.0 **** -0.24
26642 H 129.91770857917882 112.16378798498911 55.72593791038037 H 0.0 **** 0.06
26643 H 130.1387604067483 110.39811796657827 55.71529703768351 H 0.0 **** 0.06
26644 H 129.4120430621292 111.2126361884792 54.30966061348204 H 0.0 **** 0.06
26645 H 128.5021720600885 111.08955349361949 55.83442066822323 H 0.0 **** 0.06
26646 C 56.67827437874524 31.33269557380126 78.6761910145176 C 0.0 **** -0.24
26647 H 55.62444205465914 31.61268847818576 78.68812895143469 H 0.0 **** 0.06
26648 H 57.188202080084096 31.80586200195279 79.51576255079968 H 0.0 **** 0.06
26649 H 57.13180656672779 31.663131810815457 77.74225233125304 H 0.0 **** 0.06
26650 H 56.76714386533445 30.250161437881076 78.76155536709871 H 0.0 **** 0.06
26651 C 78.70276657497587 92.45441674053814 120.55253791768894 C 0.0 **** -0.24
26652 H 78.55337219578809 93.45652174172973 120.95374100821203 H 0.0 **** 0.06
26653 H 78.08339404942575 91.74691810483151 121.10441512024289 H 0.0 **** 0.06
26654 H 79.75087809003861 92.17448223489883 120.65291687084465 H 0.0 **** 0.06
26655 H 78.42174757492353 92.43963107712408 119.49950716512899 H 0.0 **** 0.06
26656 C 68.5543526254137 100.7163858871711 58.88478235424007 C 0.0 **** -0.24
26657 H 67.98138382288113 101.42607499932932 59.48240533214958 H 0.0 **** 0.06
26658 H 69.49887908838998 101.17207362380411 58.58621988639008 H 0.0 **** 0.06
26659 H 67.98327408989476 100.44605284723283 57.996402688346095 H 0.0 **** 0.06
26660 H 68.75347353424668 99.82202256333251 59.474715524323 H 0.0 **** 0.06
26661 C 38.18535006015557 18.015413654052878 57.79204539598018 C 0.0 **** -0.24
26662 H 38.19945402448846 17.785495722875538 56.72595161250743 H 0.0 **** 0.06
26663 H 37.964268638242515 17.10812536361589 58.354808272182055 H 0.0 **** 0.06
26664 H 37.4187035466573 18.763012087811234 57.99200463927106 H 0.0 **** 0.06
26665 H 39.15886871044822 18.402316285124073 58.09283409980718 H 0.0 **** 0.06
26666 C 44.55724201393576 43.6402069837994 28.42139392809031 C 0.0 **** -0.24
26667 H 44.147265121107864 43.18052160495267 29.32090734146462 H 0.0 **** 0.06
26668 H 45.50456883108836 44.12484293634975 28.660303986414306 H 0.0 **** 0.06
26669 H 43.855212868983585 44.38217084096431 28.040352202290677 H 0.0 **** 0.06
26670 H 44.721350668204025 42.87284479288928 27.664700666992758 H 0.0 **** 0.06
26671 C 77.96560517982 90.20686833446065 126.50003031731234 C 0.0 **** -0.24
26672 H 78.54489924480163 89.41294157444696 126.0302647615838 H 0.0 **** 0.06
26673 H 77.98862228505989 90.08272871648742 127.58242516344114 H 0.0 **** 0.06
26674 H 76.9341880471787 90.15857271750065 126.1502785321473 H 0.0 **** 0.06
26675 H 78.39357935894226 91.17393013829611 126.2353557127978 H 0.0 **** 0.06
26676 C 2.096171994776853 5.432684527772892 4.178084455335863 C 0.0 **** -0.24
26677 H 1.66477155320365 5.602849344630016 5.164424481862099 H 0.0 **** 0.06
26678 H 2.282174376904237 4.36667374441646 4.041870463306303 H 0.0 **** 0.06
26679 H 3.0343823292070056 5.980153232996685 4.092111132494537 H 0.0 **** 0.06
26680 H 1.4011982490326886 5.780958350286028 3.4133682045877265 H 0.0 **** 0.06
26681 C 32.24957393184182 50.466825598088576 11.792289450573634 C 0.0 **** -0.24
26682 H 31.782411814259817 50.94462229972282 12.652504455899447 H 0.0 **** 0.06
26683 H 33.19894362174451 50.95625629148384 11.574919144957832 H 0.0 **** 0.06
26684 H 31.59145353148628 50.55083217267929 10.927756355494154 H 0.0 **** 0.06
26685 H 32.42582326742965 49.41319565504875 12.013595285988515 H 0.0 **** 0.06
26686 C 58.530092750603444 93.13115065933823 135.08398583826119 C 0.0 **** -0.24
26687 H 58.44314637156913 93.77574610130432 135.9585057599492 H 0.0 **** 0.06
26688 H 57.909218548325896 92.24596016131636 135.22301490604391 H 0.0 **** 0.06
26689 H 59.569580230973315 92.82913988424593 134.95722496764196 H 0.0 **** 0.06
26690 H 58.197796128832806 93.67314917984083 134.19830889706338 H 0.0 **** 0.06
26691 C 1.9554318538463917 2.300276573325391 15.928333481817077 C 0.0 **** -0.24
26692 H 1.4621242520476017 2.52582452841159 14.98286439539951 H 0.0 **** 0.06
26693 H 1.458524891149807 1.4552509981027129 16.40503183006433 H 0.0 **** 0.06
26694 H 1.900470053676088 3.171426112291556 16.582794208100644 H 0.0 **** 0.06
26695 H 3.0000373241440457 2.051707734655281 15.742430335055971 H 0.0 **** 0.06
26696 C 76.07980666521354 10.039018025138773 119.27840927052443 C 0.0 **** -0.24
26697 H 76.87756120405237 10.716714026774099 119.58420321678835 H 0.0 **** 0.06
26698 H 75.15806669287281 10.309282706368606 119.79404626210913 H 0.0 **** 0.06
26699 H 76.3548942048352 9.016565384866624 119.53511621204046 H 0.0 **** 0.06
26700 H 75.93035971669227 10.116773788562341 118.2021710783713 H 0.0 **** 0.06
26701 C 63.69883235000947 120.79874604735959 126.06318090901533 C 0.0 **** -0.24
26702 H 63.91945322588933 119.9696980805 126.73535346578143 H 0.0 **** 0.06
26703 H 63.72388178440582 121.73498511895338 126.62064389504656 H 0.0 **** 0.06
26704 H 62.70934458880602 120.65978132325867 125.62874473101168 H 0.0 **** 0.06
26705 H 64.44327017869855 120.82927029190297 125.26774854920788 H 0.0 **** 0.06
26706 C 103.41163791212637 89.84637834244981 133.1271301202536 C 0.0 **** -0.24
26707 H 103.37378773812355 88.83928578749048 132.7136135604172 H 0.0 **** 0.06
26708 H 103.65868401186918 89.79486577369249 134.18722196196651 H 0.0 **** 0.06
26709 H 102.44120520080207 90.32758612104178 133.00248854426695 H 0.0 **** 0.06
26710 H 104.17318072730393 90.42564278170846 132.60400455148795 H 0.0 **** 0.06
26711 C 78.34572473246874 98.14759872928244 39.98605953020282 C 0.0 **** -0.24
26712 H 78.34910791936484 97.41496621919278 39.17907922354249 H 0.0 **** 0.06
26713 H 77.69697482382239 97.79907965604637 40.79029713288108 H 0.0 **** 0.06
26714 H 77.9782408727379 99.1013938124139 39.60998569974012 H 0.0 **** 0.06
26715 H 79.36012137802182 98.27379727771552 40.366382421737654 H 0.0 **** 0.06
26716 C 13.830043467592105 46.67147870045653 42.07195835856862 C 0.0 **** -0.24
26717 H 14.154647132229655 45.677561102213645 42.37812870108769 H 0.0 **** 0.06
26718 H 13.281862377311043 47.14252816672655 42.888136632340775 H 0.0 **** 0.06
26719 H 13.182761371611122 46.58769068631017 41.19830249220797 H 0.0 **** 0.06
26720 H 14.70131404622785 47.27738949253046 41.820968706907365 H 0.0 **** 0.06
26721 C 18.09699001770292 90.08448544963858 104.75000492117852 C 0.0 **** -0.24
26722 H 18.98879606835719 90.49590329673447 104.27760004336926 H 0.0 **** 0.06
26723 H 17.379660403315825 89.79438441514003 103.98162954210648 H 0.0 **** 0.06
26724 H 17.649764210941143 90.83623165680291 105.39973466623178 H 0.0 **** 0.06
26725 H 18.369397825876653 89.2092177538143 105.34090387320691 H 0.0 **** 0.06
26726 C 17.647195712609538 15.579116058337831 14.105466032982292 C 0.0 **** -0.24
26727 H 17.52373950542553 15.615365432511453 13.022530362978841 H 0.0 **** 0.06
26728 H 16.696782888971157 15.313102717186439 14.570161111802832 H 0.0 **** 0.06
26729 H 17.968484034750546 16.55631459474364 14.467275292431793 H 0.0 **** 0.06
26730 H 18.399027212577735 14.831846792598867 14.360709318551528 H 0.0 **** 0.06
26731 C 55.761293256048916 79.63809033261782 77.0365779372217 C 0.0 **** -0.24
26732 H 56.33511850558867 80.50500626770071 77.36426438906813 H 0.0 **** 0.06
26733 H 56.17031097518843 78.73759857708149 77.49402316306993 H 0.0 **** 0.06
26734 H 55.82073462360162 79.55330777493751 75.95087873086143 H 0.0 **** 0.06
26735 H 54.72034092276455 79.75802240683683 77.33520907244827 H 0.0 **** 0.06
26736 C 60.97129116744395 54.315351990971195 109.38142192375506 C 0.0 **** -0.24
26737 H 60.026920849122064 53.774693294532256 109.31226286039777 H 0.0 **** 0.06
26738 H 60.9305347962908 55.010323992541615 110.22044094627859 H 0.0 **** 0.06
26739 H 61.14055122710002 54.8685584693623 108.45819137988764 H 0.0 **** 0.06
26740 H 61.78466737902471 53.60589406831791 109.53581326480327 H 0.0 **** 0.06
26741 C 124.67546502636732 59.20002166436174 45.21128761654438 C 0.0 **** -0.24
26742 H 124.86320961858993 59.37468696717353 44.152257860235835 H 0.0 **** 0.06
26743 H 125.57365644317626 58.7919968792968 45.67679497422053 H 0.0 **** 0.06
26744 H 123.8542090803042 58.491166138377565 45.322403011298235 H 0.0 **** 0.06
26745 H 124.41191676051253 60.141417350323124 45.693475899150044 H 0.0 **** 0.06
26746 C 129.33012568383106 7.60547700722357 76.71309171167519 C 0.0 **** -0.24
26747 H 129.37517211650152 7.195236636147598 75.70424349780562 H 0.0 **** 0.06
26748 H 129.15369183336725 8.679909175172476 76.66105632794216 H 0.0 **** 0.06
26749 H 130.27314148554032 7.416282618412495 77.22481887418733 H 0.0 **** 0.06
26750 H 128.51719360607365 7.129960942439201 77.26207074816233 H 0.0 **** 0.06
26751 C 45.90856210193071 17.637574567993738 68.77841830287986 C 0.0 **** -0.24
26752 H 45.68975441604758 18.13041745744249 67.83133376178985 H 0.0 **** 0.06
26753 H 45.59303807984952 16.59573862518937 68.72751155579476 H 0.0 **** 0.06
26754 H 45.37158235692521 18.14182779310238 69.58228553916643 H 0.0 **** 0.06
26755 H 46.980050225383025 17.684739054698298 68.97284251636349 H 0.0 **** 0.06
26756 C 135.17023005134843 122.60858912503306 64.08430436474697 C 0.0 **** -0.24
26757 H 135.86362220433563 122.69755692795792 63.248864930949935 H 0.0 **** 0.06
26758 H 134.16144888962884 122.85069979414112 63.747685705897254 H 0.0 **** 0.06
26759 H 135.46453714901037 123.29873426679694 64.87529557818493 H 0.0 **** 0.06
26760 H 135.19051473022205 121.5880243199897 64.46633586022301 H 0.0 **** 0.06
26761 C 31.806764486091424 10.378769410765472 119.19614815664939 C 0.0 **** -0.24
26762 H 32.83362207427598 10.10953116111989 118.9484763415504 H 0.0 **** 0.06
26763 H 31.772173856811264 11.42083499278732 119.51722130953308 H 0.0 **** 0.06
26764 H 31.447886041333163 9.73882128962373 120.00196370983736 H 0.0 **** 0.06
26765 H 31.17445415502914 10.247415845906687 118.31816014976684 H 0.0 **** 0.06
26766 C 34.81787143151587 37.14166335588065 61.01165817025854 C 0.0 **** -0.24
26767 H 34.074387277863934 37.37365254496267 61.77351927380802 H 0.0 **** 0.06
26768 H 35.02384868818133 38.03397901410519 60.42087971959185 H 0.0 **** 0.06
26769 H 34.43816409421498 36.353773801576395 60.36063936780545 H 0.0 **** 0.06
26770 H 35.73660256849939 36.80333192073528 61.49142793600511 H 0.0 **** 0.06
26771 C 27.2323509858918 49.311421152785044 0.3854001982313662 C 0.0 **** -0.24
26772 H 26.28558022121061 49.510860714141586 -0.11725084882647252 H 0.0 **** 0.06
26773 H 27.568417508444412 50.21172568214655 0.8991239334940246 H 0.0 **** 0.06
26774 H 27.978234359366397 49.014045150184415 -0.35218071287721386 H 0.0 **** 0.06
26775 H 27.0968144110398 48.50842284512936 1.1089971542988337 H 0.0 **** 0.06
26776 C 100.854156232267 6.877846665240696 74.5243682019573 C 0.0 **** -0.24
26777 H 101.8614716610088 6.974779867861372 74.93079617458461 H 0.0 **** 0.06
26778 H 100.12778724550417 6.944218542569388 75.334786589531 H 0.0 **** 0.06
26779 H 100.75574023184055 5.913137221679676 74.0268041018056 H 0.0 **** 0.06
26780 H 100.67300674512447 7.677995832981878 73.80631788345615 H 0.0 **** 0.06
26781 C 103.62418511379263 34.58250718456304 14.258780666121197 C 0.0 **** -0.24
26782 H 102.88860011222198 34.629087412679155 13.456498923560957 H 0.0 **** 0.06
26783 H 104.1295935532994 33.61666316873644 14.230910377000782 H 0.0 **** 0.06
26784 H 103.12328153677498 34.703204975939855 15.218772157250328 H 0.0 **** 0.06
26785 H 104.35592854996611 35.37921855616028 14.127484950467874 H 0.0 **** 0.06
26786 C 103.42582284721442 40.41062383931347 51.04299419010958 C 0.0 **** -0.24
26787 H 103.30567381073354 40.42718837991788 49.95935129316115 H 0.0 **** 0.06
26788 H 102.7514884610103 39.66939946285055 51.471161904641306 H 0.0 **** 0.06
26789 H 103.1905626327189 41.39416597164791 51.44954746084582 H 0.0 **** 0.06
26790 H 104.45527691459844 40.15164086565585 51.28910427245518 H 0.0 **** 0.06
26791 C 44.2779774926027 1.6267293961734595 85.9320424825828 C 0.0 **** -0.24
26792 H 44.99435114729792 1.851554099238811 86.72244852953193 H 0.0 **** 0.06
26793 H 44.812728688687315 1.4120847163478984 85.00695769287677 H 0.0 **** 0.06
26794 H 43.62200438108124 2.4843958960714403 85.78340363043372 H 0.0 **** 0.06
26795 H 43.68246368158441 0.7593103071441725 86.21813254478266 H 0.0 **** 0.06
26796 C 45.53551103487257 79.19138999387046 4.226986092409206 C 0.0 **** -0.24
26797 H 44.9837317005709 79.5767069171569 3.370008577312319 H 0.0 **** 0.06
26798 H 44.832548689546684 78.85927765895238 4.991119203561503 H 0.0 **** 0.06
26799 H 46.169358869352436 79.97936744306607 4.633842982289011 H 0.0 **** 0.06
26800 H 46.15441963221406 78.35121930428197 3.9131638645963527 H 0.0 **** 0.06
26801 C 58.51355956490244 70.56897567922582 48.37214930833122 C 0.0 **** -0.24
26802 H 59.23195066410952 71.11108193674521 47.757455821644214 H 0.0 **** 0.06
26803 H 57.54057989731241 71.05739563584575 48.30892251771343 H 0.0 **** 0.06
26804 H 58.85128255777548 70.56496186663207 49.40794951979342 H 0.0 **** 0.06
26805 H 58.42921311216148 69.54340040092173 48.01346133544334 H 0.0 **** 0.06
26806 C 25.409350863272415 53.323412274263376 76.93289775720876 C 0.0 **** -0.24
26807 H 25.98425865391131 54.11696344468294 76.45591283288667 H 0.0 **** 0.06
26808 H 25.576600168715416 52.385275877135314 76.4041390112136 H 0.0 **** 0.06
26809 H 24.348610641339796 53.57428808003087 76.90068561861875 H 0.0 **** 0.06
26810 H 25.72512014003469 53.21810975113968 77.97052735162237 H 0.0 **** 0.06
26811 C 114.96747728927386 31.12068700951015 72.45463924706354 C 0.0 **** -0.24
26812 H 114.66848623800306 32.16748357293341 72.51736416039472 H 0.0 **** 0.06
26813 H 115.01692420324068 30.819543419645527 71.40838708448297 H 0.0 **** 0.06
26814 H 114.23676506126921 30.50277200023735 72.97649817696015 H 0.0 **** 0.06
26815 H 115.94619700645421 30.99477092093067 72.91574209358873 H 0.0 **** 0.06
26816 C 6.940697194643633 25.207147547596918 56.86242297642718 C 0.0 **** -0.24
26817 H 6.258829334543801 25.78982985745924 57.48176343718046 H 0.0 **** 0.06
26818 H 6.598075201783093 25.227064019229033 55.82753622065081 H 0.0 **** 0.06
26819 H 6.963217763705909 24.17642806914202 57.217724665322976 H 0.0 **** 0.06
26820 H 7.941248997273426 25.633540094021924 56.92273447286016 H 0.0 **** 0.06
26821 C 60.12771227420505 77.30573615122569 51.70481485722509 C 0.0 **** -0.24
26822 H 59.95895429037731 76.23829281985286 51.846707550941616 H 0.0 **** 0.06
26823 H 60.292488216842244 77.77941346368698 52.67298725418216 H 0.0 **** 0.06
26824 H 59.25428796078181 77.75085482285851 51.226666899634836 H 0.0 **** 0.06
26825 H 61.00283329855644 77.4540761290819 51.07372420324516 H 0.0 **** 0.06
26826 C 37.78944816651233 123.79845015051731 135.2981993933442 C 0.0 **** -0.24
26827 H 36.91236059510781 123.22888130634914 135.60354629649242 H 0.0 **** 0.06
26828 H 38.68179529671262 123.35948623917469 135.7457855877196 H 0.0 **** 0.06
26829 H 37.685340620694944 124.83123858113362 135.6314346832453 H 0.0 **** 0.06
26830 H 37.87829615353378 123.77419447541155 134.21203100591958 H 0.0 **** 0.06
26831 C 129.3976858499953 94.38047906553382 128.64424809637916 C 0.0 **** -0.24
26832 H 128.36762628648282 94.03453540170864 128.73928185041106 H 0.0 **** 0.06
26833 H 129.58209682750183 94.69361750628053 127.61705730222901 H 0.0 **** 0.06
26834 H 130.07848898231185 93.57034155203502 128.90614956690445 H 0.0 **** 0.06
26835 H 129.56001720596643 95.22360397560604 129.31641327036726 H 0.0 **** 0.06
26836 C 22.64801091975619 14.162774060145068 11.891345878501681 C 0.0 **** -0.24
26837 H 21.932673462558313 13.347233245450411 11.785730739606265 H 0.0 **** 0.06
26838 H 22.13848281163257 15.114763046636995 11.741045657157201 H 0.0 **** 0.06
26839 H 23.437265765589956 14.051740406690044 11.147221951806102 H 0.0 **** 0.06
26840 H 23.08382439259816 14.137324888770934 12.889985957469037 H 0.0 **** 0.06
26841 C 69.18772816843989 115.22080162461216 31.531739008984886 C 0.0 **** -0.24
26842 H 69.64747546854073 115.34835617451574 30.551858758738575 H 0.0 **** 0.06
26843 H 69.9057843859025 115.49115197306489 32.30636540219365 H 0.0 **** 0.06
26844 H 68.88824222657223 114.18071551860663 31.66058823562426 H 0.0 **** 0.06
26845 H 68.31088446947876 115.86380411467397 31.60775207635129 H 0.0 **** 0.06
26846 C 89.24818721520018 85.78919330583714 103.99577563320828 C 0.0 **** -0.24
26847 H 89.9863285514927 85.97549573174585 104.7761645472674 H 0.0 **** 0.06
26848 H 89.40667213909617 86.48502999573495 103.17211619262397 H 0.0 **** 0.06
26849 H 88.24671491067244 85.92737093162307 104.40215622616088 H 0.0 **** 0.06
26850 H 89.35510963624465 84.76595396415132 103.63304984659372 H 0.0 **** 0.06
26851 C 89.17645740192019 34.248715864631436 22.261249369160595 C 0.0 **** -0.24
26852 H 89.50184894941137 34.460259690104635 21.24275164881618 H 0.0 **** 0.06
26853 H 90.0240891613565 34.34036579889789 22.939727600592605 H 0.0 **** 0.06
26854 H 88.77729737165919 33.23557005004716 22.310826555142114 H 0.0 **** 0.06
26855 H 88.40094316888387 34.95860555761351 22.549187501333904 H 0.0 **** 0.06
26856 C 48.587556933368035 48.33075427437018 91.55505205547146 C 0.0 **** -0.24
26857 H 48.37147474432112 49.39952582270632 91.55704379139986 H 0.0 **** 0.06
26858 H 48.91136424958981 48.025290541434515 92.55049509067346 H 0.0 **** 0.06
26859 H 49.37803414048591 48.12086603777914 90.83519878682895 H 0.0 **** 0.06
26860 H 47.68910924350007 47.77930806125278 91.27948201992588 H 0.0 **** 0.06
26861 C 51.883479719299174 3.793327534838504 114.02305269559918 C 0.0 **** -0.24
26862 H 51.949250499001494 2.7656056911777114 113.66555012254571 H 0.0 **** 0.06
26863 H 51.54236664268028 3.796451662706094 115.05823778280649 H 0.0 **** 0.06
26864 H 51.17804587853435 4.348665479275951 113.40513124867186 H 0.0 **** 0.06
26865 H 52.86631407353953 4.262267294468959 113.96247825956016 H 0.0 **** 0.06
26866 C 27.03557445637189 95.36363664277827 28.072820231460554 C 0.0 **** -0.24
26867 H 26.08036084119876 95.25532217292348 28.587845519906267 H 0.0 **** 0.06
26868 H 27.51402271560994 94.38815364654158 27.98756043580019 H 0.0 **** 0.06
26869 H 27.678553805777412 96.03638918156838 28.6401460894933 H 0.0 **** 0.06
26870 H 26.86688462741217 95.77506311273972 27.077902627095142 H 0.0 **** 0.06
26871 C 13.853527494360321 42.56567591216526 15.355614033713017 C 0.0 **** -0.24
26872 H 12.78269798827381 42.3816473188312 15.263289864401244 H 0.0 **** 0.06
26873 H 14.030350374323177 43.27060454178013 16.16837069396462 H 0.0 **** 0.06
26874 H 14.23185391091485 42.9829414804185 14.423154615850827 H 0.0 **** 0.06
26875 H 14.365665924821542 41.6277209427376 15.568829271392843 H 0.0 **** 0.06
26876 C 44.45216991703009 20.772307862642407 62.43720752607622 C 0.0 **** -0.24
26877 H 44.826526021777994 21.794940072802675 62.38865920503335 H 0.0 **** 0.06
26878 H 45.061525836589404 20.19590141671239 63.134051900981504 H 0.0 **** 0.06
26879 H 44.50487631525523 20.318760306894347 61.44775986008848 H 0.0 **** 0.06
26880 H 43.41760834958519 20.779573797891914 62.77910018789402 H 0.0 **** 0.06
26881 C 72.88524909954324 96.31232031370254 66.35265750386488 C 0.0 **** -0.24
26882 H 72.4655078748437 95.65343674251801 65.59118202764044 H 0.0 **** 0.06
26883 H 73.96658970149926 96.17599452297462 66.39505934709825 H 0.0 **** 0.06
26884 H 72.44980369604451 96.06855012042588 67.32193737860302 H 0.0 **** 0.06
26885 H 72.65829437974014 97.34846942506424 66.10186150739891 H 0.0 **** 0.06
26886 C 59.95008531891804 77.80405143323682 67.48088657625064 C 0.0 **** -0.24
26887 H 59.95394221093258 77.50457619251488 66.43276693923376 H 0.0 **** 0.06
26888 H 59.931221792782154 76.91528347846901 68.11258888578398 H 0.0 **** 0.06
26889 H 59.06749926961888 78.41138621683409 67.68159130406747 H 0.0 **** 0.06
26890 H 60.847261191169096 78.38366255395218 67.6969778535429 H 0.0 **** 0.06
26891 C 5.013204406113687 106.51772395820079 122.90843788522797 C 0.0 **** -0.24
26892 H 4.624291996917236 106.65638487914242 121.89991603352794 H 0.0 **** 0.06
26893 H 5.396924397589885 107.46662491879353 123.28355654550359 H 0.0 **** 0.06
26894 H 5.816387225534697 105.78150950572208 122.88947288393857 H 0.0 **** 0.06
26895 H 4.21321854603076 106.16520931029498 123.55999612480656 H 0.0 **** 0.06
26896 C 80.68966426781503 106.8830035154821 83.26903676646191 C 0.0 **** -0.24
26897 H 79.61133482278001 106.75376077794579 83.17833413627369 H 0.0 **** 0.06
26898 H 81.01026555957577 107.71367146020066 82.64078314639283 H 0.0 **** 0.06
26899 H 81.19324744046338 105.96993052487912 82.95013583306479 H 0.0 **** 0.06
26900 H 80.94402182075248 107.09374669942073 84.30796006712774 H 0.0 **** 0.06
26901 C 6.397646281365439 96.51415927886168 70.21723981745589 C 0.0 **** -0.24
26902 H 5.508092988226281 96.90056692727592 70.71528515257744 H 0.0 **** 0.06
26903 H 6.57792284944 95.48818330278658 70.53980727881415 H 0.0 **** 0.06
26904 H 7.256149299032245 97.13328478652429 70.47648335298283 H 0.0 **** 0.06
26905 H 6.246474041543138 96.53365977962449 69.13795406025434 H 0.0 **** 0.06
26906 C 36.15393954534356 112.77433499344511 44.99786740773973 C 0.0 **** -0.24
26907 H 37.0740563815007 112.74162245696937 44.414605074548604 H 0.0 **** 0.06
26908 H 35.73012021149057 111.77169758911506 45.0639849086936 H 0.0 **** 0.06
26909 H 35.43953119761517 113.43979281874542 44.51222381227868 H 0.0 **** 0.06
26910 H 36.37192949783831 113.14447109333423 45.999693596971596 H 0.0 **** 0.06
26911 C 20.686872746604422 51.102030220579266 19.416834894590806 C 0.0 **** -0.24
26912 H 20.861638646462495 52.17620650703137 19.474020798344384 H 0.0 **** 0.06
26913 H 21.56452617607755 50.61345369866768 18.992850777431357 H 0.0 **** 0.06
26914 H 19.82078564963433 50.90816517631205 18.78373098063969 H 0.0 **** 0.06
26915 H 20.50036371175179 50.7109635435591 20.4174598673238 H 0.0 **** 0.06
26916 C 97.9910993142235 22.283526931231478 96.48664946337877 C 0.0 **** -0.24
26917 H 97.93394662344986 21.22657697648782 96.74910037306583 H 0.0 **** 0.06
26918 H 97.12700395023799 22.806355216195954 96.89744488551254 H 0.0 **** 0.06
26919 H 97.99717558451243 22.387631752797347 95.4018544107627 H 0.0 **** 0.06
26920 H 98.90456016127251 22.71113589534798 96.89767358486293 H 0.0 **** 0.06
26921 C 95.86584057873142 19.709328184917098 70.38189330575779 C 0.0 **** -0.24
26922 H 94.84562359480356 19.890425393639333 70.0465202651107 H 0.0 **** 0.06
26923 H 96.51626745070746 20.501819337943573 70.01188963862701 H 0.0 **** 0.06
26924 H 96.2093451676084 18.748364362784116 69.99880428668902 H 0.0 **** 0.06
26925 H 95.89288562863948 19.69633637808802 71.47149407730664 H 0.0 **** 0.06
26926 C 33.883106175311156 77.4040537049855 13.459620164987939 C 0.0 **** -0.24
26927 H 33.101806181531344 76.67406115906259 13.668124850259773 H 0.0 **** 0.06
26928 H 34.25078095751418 77.26290931150045 12.442700979960819 H 0.0 **** 0.06
26929 H 34.70353511432078 77.26827910420506 14.164646901201962 H 0.0 **** 0.06
26930 H 33.47753537614751 78.41036511489206 13.563354084882803 H 0.0 **** 0.06
26931 C 36.9637211614606 50.861624294721594 35.563272467422735 C 0.0 **** -0.24
26932 H 37.83984871858979 50.8629755127066 34.91521636229379 H 0.0 **** 0.06
26933 H 36.48792687975197 49.8807821691931 35.52804945111413 H 0.0 **** 0.06
26934 H 36.25834957159813 51.620210908519766 35.22393291207612 H 0.0 **** 0.06
26935 H 37.268322025216776 51.0815430457514 36.58724668155182 H 0.0 **** 0.06
26936 C 106.77803855708511 63.43391642556952 65.88223153298105 C 0.0 **** -0.24
26937 H 107.30810194871107 64.36788166186676 66.07021510399903 H 0.0 **** 0.06
26938 H 107.48544652649362 62.604730503152666 65.9016928893987 H 0.0 **** 0.06
26939 H 106.29819518647736 63.47958685220209 64.90362195701732 H 0.0 **** 0.06
26940 H 106.02072181949386 63.284818536342414 66.65137729620983 H 0.0 **** 0.06
26941 C 70.8235871152708 45.22133885083554 9.371389739425581 C 0.0 **** -0.24
26942 H 70.31592734989525 46.14980266604343 9.632252835524127 H 0.0 **** 0.06
26943 H 70.9273541140406 45.156756238255724 8.287632099864823 H 0.0 **** 0.06
26944 H 70.23929059264044 44.37440203560354 9.730996000111418 H 0.0 **** 0.06
26945 H 71.81141468713673 45.20452682142793 9.832989300511713 H 0.0 **** 0.06
26946 C 136.56763712025418 28.810805093748257 130.25362516710575 C 0.0 **** -0.24
26947 H 137.63803705832095 28.94173676874513 130.09609131991706 H 0.0 **** 0.06
26948 H 136.2796937613314 27.798673125474608 129.96890323963436 H 0.0 **** 0.06
26949 H 136.02035996785142 29.529844467381167 129.64396529087017 H 0.0 **** 0.06
26950 H 136.33298634823154 28.97342735124687 131.3062533753103 H 0.0 **** 0.06
26951 C 38.186751257579814 30.74411316222094 89.13259880097104 C 0.0 **** -0.24
26952 H 38.24055138832202 29.7830274509451 88.62211979052702 H 0.0 **** 0.06
26953 H 39.17397653963664 31.01056801205877 89.50962943849538 H 0.0 **** 0.06
26954 H 37.48534313679012 30.675524905336204 89.96383122263893 H 0.0 **** 0.06
26955 H 37.8463266633641 31.508226338237534 88.43293083191648 H 0.0 **** 0.06
26956 C 125.43116470129682 55.91813075751986 47.16830027372032 C 0.0 **** -0.24
26957 H 125.39174131752723 55.06766067770285 46.488206553293765 H 0.0 **** 0.06
26958 H 126.14858286719132 55.71462752849932 47.963974028280745 H 0.0 **** 0.06
26959 H 124.44461545952659 56.082281341297204 47.60314081607169 H 0.0 **** 0.06
26960 H 125.73886825785145 56.80885695995897 46.61999156149119 H 0.0 **** 0.06
26961 C 97.87532290635501 81.3169123733014 112.42099365746657 C 0.0 **** -0.24
26962 H 98.56210436609841 81.39047099073723 111.57845204717509 H 0.0 **** 0.06
26963 H 98.43434180577597 81.39945231542288 113.35367481476644 H 0.0 **** 0.06
26964 H 97.36185348122639 80.35551823656175 112.38887567271513 H 0.0 **** 0.06
26965 H 97.14265229776841 82.122062919449 112.36517750195901 H 0.0 **** 0.06
26966 C 42.68298533925397 46.60368271969868 43.146249539801886 C 0.0 **** -0.24
26967 H 43.69042593856979 46.41586404348057 42.77453505445761 H 0.0 **** 0.06
26968 H 42.38799401766642 45.79810266198673 43.818712145812775 H 0.0 **** 0.06
26969 H 41.989163793376186 46.648371647867336 42.305738561442894 H 0.0 **** 0.06
26970 H 42.665026341508685 47.55220884474218 43.68292702562773 H 0.0 **** 0.06
26971 C 2.82381280542916 102.86591016078633 38.7812849349349 C 0.0 **** -0.24
26972 H 3.297676638943109 101.88436236559697 38.74918980914996 H 0.0 **** 0.06
26973 H 3.591830928104681 103.64028496944239 38.75017238411443 H 0.0 **** 0.06
26974 H 2.2485580088683434 102.96137554858092 39.70111494569398 H 0.0 **** 0.06
26975 H 2.1606843273952805 102.97695313425278 37.92351449399365 H 0.0 **** 0.06
26976 C 23.85900293124172 108.12063703533784 107.59203366260212 C 0.0 **** -0.24
26977 H 23.916116734199434 109.15191904395363 107.2431389593224 H 0.0 **** 0.06
26978 H 24.589131006903955 107.96456037761288 108.38645304340203 H 0.0 **** 0.06
26979 H 24.072783016790254 107.44523645391399 106.76328688663764 H 0.0 **** 0.06
26980 H 22.857425794552192 107.92232239243066 107.97339254222214 H 0.0 **** 0.06
26981 C 67.95762634695541 83.62973492361974 60.19295654816125 C 0.0 **** -0.24
26982 H 68.84500640977217 84.20408778798851 60.45643977416387 H 0.0 **** 0.06
26983 H 68.2502251872238 82.6148353180361 59.92020600214079 H 0.0 **** 0.06
26984 H 67.45535747721334 84.10258459217005 59.349747097403 H 0.0 **** 0.06
26985 H 67.28027830918342 83.59543534276489 61.0463727685966 H 0.0 **** 0.06
26986 C 22.724333364943675 92.9783918395088 62.69916500256876 C 0.0 **** -0.24
26987 H 22.375747945875446 92.18967269304856 62.031492601988845 H 0.0 **** 0.06
26988 H 22.911554012618012 92.56023386617012 63.68820716583163 H 0.0 **** 0.06
26989 H 21.96319026009428 93.75575244829922 62.77059152969662 H 0.0 **** 0.06
26990 H 23.645427709623334 93.40698446741908 62.304902902308996 H 0.0 **** 0.06
26991 C 85.95788454944727 64.22044337169316 100.85646436398126 C 0.0 **** -0.24
26992 H 85.47051062109296 64.6709068365412 99.9919880096243 H 0.0 **** 0.06
26993 H 86.37136324036598 63.25156007042662 100.57631335770863 H 0.0 **** 0.06
26994 H 85.23040800466177 64.0881834516193 101.65622505951936 H 0.0 **** 0.06
26995 H 86.76166699210444 64.8730338902202 101.20059742960827 H 0.0 **** 0.06
26996 C 130.38098745304723 114.01897971705398 49.94323681951744 C 0.0 **** -0.24
26997 H 131.0549558832709 114.09123201501583 49.089741527591286 H 0.0 **** 0.06
26998 H 130.45215616246617 114.9292423436575 50.53993532037862 H 0.0 **** 0.06
26999 H 130.66014466893847 113.16150774867182 50.55407808467345 H 0.0 **** 0.06
27000 H 129.35818883660176 113.89576049757375 49.58853126517613 H 0.0 **** 0.06
27001 C 60.55248244724217 72.11682479973464 108.45457929875653 C 0.0 **** -0.24
27002 H 60.00710100070424 71.17921019756197 108.34215577661305 H 0.0 **** 0.06
27003 H 61.07637850932292 72.11923233966336 109.4101692524564 H 0.0 **** 0.06
27004 H 59.85270699822675 72.95127189073295 108.42091344594776 H 0.0 **** 0.06
27005 H 61.274745806894714 72.21499657459174 107.64326304092772 H 0.0 **** 0.06
27006 C 105.27003546758237 104.88649596582755 122.81609726761256 C 0.0 **** -0.24
27007 H 105.31754319180206 104.27456178451138 123.71765242483823 H 0.0 **** 0.06
27008 H 104.23541335624174 105.16963331816804 122.62384128278256 H 0.0 **** 0.06
27009 H 105.65415480210561 104.3155850412357 121.97065056763314 H 0.0 **** 0.06
27010 H 105.87393516285942 105.78297175652678 122.95389908854715 H 0.0 **** 0.06
27011 C 61.92110912561486 4.532319392601494 34.34301011202538 C 0.0 **** -0.24
27012 H 62.342463666681766 5.123948269200866 35.155837087389216 H 0.0 **** 0.06
27013 H 62.71034608687944 4.273849678835063 33.63600264707884 H 0.0 **** 0.06
27014 H 61.15198847439751 5.112317556290918 33.83296735384698 H 0.0 **** 0.06
27015 H 61.481978902954864 3.6212363285389984 34.747701715583474 H 0.0 **** 0.06
27016 C 32.64466433432391 52.34107195287483 111.9904464261505 C 0.0 **** -0.24
27017 H 33.49657916234896 52.571496783641635 112.63099746550918 H 0.0 **** 0.06
27018 H 32.417509089705355 51.27751020729855 112.05700412962355 H 0.0 **** 0.06
27019 H 32.887573532928876 52.59680291055838 110.95892673374186 H 0.0 **** 0.06
27020 H 31.780331193900878 52.91982563230732 112.31509767196857 H 0.0 **** 0.06
27021 C 106.86252611491618 49.348553346266044 8.973292153160713 C 0.0 **** -0.24
27022 H 107.80103890302325 49.49810887666098 9.509027207324323 H 0.0 **** 0.06
27023 H 106.9703092792849 49.703076752055765 7.9476337984402505 H 0.0 **** 0.06
27024 H 106.06908938074106 49.905617067886325 9.47004375330701 H 0.0 **** 0.06
27025 H 106.613814636638 48.28802763072568 8.96831226051384 H 0.0 **** 0.06
27026 C 48.4367050136585 47.47919572336818 5.63533124493776 C 0.0 **** -0.24
27027 H 49.40158289196734 47.49894291631841 6.142760871061569 H 0.0 **** 0.06
27028 H 47.71125665638189 48.052074030989615 6.213549386999063 H 0.0 **** 0.06
27029 H 48.09677418873372 46.44772602377259 5.543803414759196 H 0.0 **** 0.06
27030 H 48.539029230410364 47.91838703430352 4.642810300398452 H 0.0 **** 0.06
27031 C 33.58002501570567 23.252349472043647 13.437521058897232 C 0.0 **** -0.24
27032 H 34.28096231696418 22.422594363151482 13.53514522619713 H 0.0 **** 0.06
27033 H 33.86621500155928 23.869657394239127 12.585374163946327 H 0.0 **** 0.06
27034 H 33.59988792989881 23.853304583527752 14.345498691556557 H 0.0 **** 0.06
27035 H 32.57463090316503 22.861385386181638 13.280996853045238 H 0.0 **** 0.06
27036 C 91.69715490487093 78.19265056294898 26.12359376688846 C 0.0 **** -0.24
27037 H 92.6051322444934 78.39794785533667 26.68976705209616 H 0.0 **** 0.06
27038 H 90.97196423153478 77.69487439274764 26.767823121917786 H 0.0 **** 0.06
27039 H 91.9344352178999 77.54967719488118 25.277215442024612 H 0.0 **** 0.06
27040 H 91.27645935538253 79.13114312282354 25.7601709943865 H 0.0 **** 0.06
27041 C 92.82228961017371 66.77971492246338 17.31127179806105 C 0.0 **** -0.24
27042 H 93.55742542475046 66.47566051559251 16.565672478319172 H 0.0 **** 0.06
27043 H 92.15957520309554 67.53139431501195 16.88296379344849 H 0.0 **** 0.06
27044 H 93.33537092079854 67.19744209441322 18.177680855462533 H 0.0 **** 0.06
27045 H 92.23780278401806 65.9122704626601 17.61953851357653 H 0.0 **** 0.06
27046 C 78.47904522047239 24.095520142215264 42.19805930573594 C 0.0 **** -0.24
27047 H 77.76231353618346 24.108438377959914 41.37658021201426 H 0.0 **** 0.06
27048 H 78.07453828623231 24.655848952833708 43.04124780615983 H 0.0 **** 0.06
27049 H 79.41338055504642 24.552132252492058 41.872143816041984 H 0.0 **** 0.06
27050 H 78.66406981505963 23.064801294853567 42.501410000012044 H 0.0 **** 0.06
27051 C 136.8967412004218 44.16940105179427 57.1185649057669 C 0.0 **** -0.24
27052 H 137.06581213766225 44.205473693673 58.19465961980546 H 0.0 **** 0.06
27053 H 136.86649426164055 45.18471928567102 56.72186966103504 H 0.0 **** 0.06
27054 H 135.94846052752047 43.67200333949417 56.91620799519632 H 0.0 **** 0.06
27055 H 137.7060257665737 43.6167697979494 56.64186245531053 H 0.0 **** 0.06
27056 C 126.62033171699746 93.12496474601554 120.79086489563912 C 0.0 **** -0.24
27057 H 127.1827245876612 93.56705280179446 121.61259320785626 H 0.0 **** 0.06
27058 H 125.68970108402158 93.67497505017884 120.65005521387036 H 0.0 **** 0.06
27059 H 126.39535987512842 92.08400623585726 121.02265381792375 H 0.0 **** 0.06
27060 H 127.21371558664042 93.1732960171783 119.87685733860229 H 0.0 **** 0.06
27061 C 11.50679146644427 136.21275440015404 127.76093697070881 C 0.0 **** -0.24
27062 H 12.022487708124345 135.50394716376408 127.11347135404421 H 0.0 **** 0.06
27063 H 12.040234076214858 136.29440208424472 128.70757135866694 H 0.0 **** 0.06
27064 H 10.49030028055114 135.86488641438748 127.94488966965893 H 0.0 **** 0.06
27065 H 11.474504187434377 137.18953772844628 127.27647850609382 H 0.0 **** 0.06
27066 C 54.978990114015716 77.04863269585535 88.08838376194254 C 0.0 **** -0.24
27067 H 55.57152779798818 76.32089054863081 88.64357342424374 H 0.0 **** 0.06
27068 H 55.444188328837214 78.03093009983449 88.1675953094386 H 0.0 **** 0.06
27069 H 53.97226586624045 77.08808606759318 88.50270455288715 H 0.0 **** 0.06
27070 H 54.929895868239996 76.75203000279689 87.04043305619736 H 0.0 **** 0.06
27071 C 109.39570931310658 51.84558715619383 125.90525569041999 C 0.0 **** -0.24
27072 H 108.90107768619231 51.01421215769318 126.40851235869792 H 0.0 **** 0.06
27073 H 109.36931776091973 51.68414631489274 124.82696237863256 H 0.0 **** 0.06
27074 H 110.43189076511891 51.9066484036009 126.23851024920086 H 0.0 **** 0.06
27075 H 108.88117993625752 52.77574941758297 126.14730066438602 H 0.0 **** 0.06
27076 C 115.96140170882131 111.68737041408855 82.38065869969898 C 0.0 **** -0.24
27077 H 115.24471745386779 111.11843771858278 82.97229650608301 H 0.0 **** 0.06
27078 H 116.55352703747212 112.32191480205924 83.03998037407365 H 0.0 **** 0.06
27079 H 115.42719273575301 112.30790224333745 81.66193411202642 H 0.0 **** 0.06
27080 H 116.6194986048389 110.99949364550389 81.8491625861264 H 0.0 **** 0.06
27081 C 80.98807304690797 5.158728837284702 85.31434793191613 C 0.0 **** -0.24
27082 H 80.41065436937822 5.684781898850822 84.55517678247412 H 0.0 **** 0.06
27083 H 82.05134395684428 5.2479918794074365 85.08913648539726 H 0.0 **** 0.06
27084 H 80.70481798536196 4.10604802561917 85.32057327680809 H 0.0 **** 0.06
27085 H 80.78600963192127 5.594835832449558 86.29287036217909 H 0.0 **** 0.06
27086 C 58.827952986617476 45.07757827928975 77.00841679324493 C 0.0 **** -0.24
27087 H 58.22706391765601 45.700471601430124 77.67152864605389 H 0.0 **** 0.06
27088 H 58.70966686629549 44.03057629461811 77.28753916823445 H 0.0 **** 0.06
27089 H 59.8770864526103 45.36018223738567 77.09521560783111 H 0.0 **** 0.06
27090 H 58.49701052159185 45.22004665754464 75.97906312830804 H 0.0 **** 0.06
27091 C 135.9674465604698 50.18532523499434 17.641627611562562 C 0.0 **** -0.24
27092 H 136.26401758168515 49.43572016156986 18.373930713910035 H 0.0 **** 0.06
27093 H 136.1466434491757 51.181000691045256 18.047984531685906 H 0.0 **** 0.06
27094 H 134.9079430985015 50.071095875118715 17.412810823837184 H 0.0 **** 0.06
27095 H 136.55159716476948 50.05397228301456 16.73052357895765 H 0.0 **** 0.06
27096 C 115.62976116832067 126.63759267360649 120.49004310003318 C 0.0 **** -0.24
27097 H 116.28302536947581 127.39475461235025 120.92502562544561 H 0.0 **** 0.06
27098 H 114.58988462963205 126.8997831415362 120.6855041279859 H 0.0 **** 0.06
27099 H 115.85088315680997 125.66810342480102 120.93654139499918 H 0.0 **** 0.06
27100 H 115.79681361421993 126.58885433858461 119.41423917028969 H 0.0 **** 0.06
27101 C 125.21456305140512 1.269716536826735 12.525694063056449 C 0.0 **** -0.24
27102 H 125.86092490886247 0.8623287524382874 11.748370064598674 H 0.0 **** 0.06
27103 H 125.14649665522916 0.5610289375256627 13.351012129249995 H 0.0 **** 0.06
27104 H 124.22027576595931 1.447056555752397 12.114933299364708 H 0.0 **** 0.06
27105 H 125.63077444543609 2.2103434604319716 12.886919956526015 H 0.0 **** 0.06
27106 C 101.59831949297359 93.54190151015689 128.72776831276983 C 0.0 **** -0.24
27107 H 100.73378267218749 92.89602897692339 128.88395364605492 H 0.0 **** 0.06
27108 H 102.4477888756499 93.15402745197173 129.2908878322258 H 0.0 **** 0.06
27109 H 101.3645091588773 94.55040607827368 129.0701078586286 H 0.0 **** 0.06
27110 H 101.84578469909616 93.56709990976066 127.66607055945718 H 0.0 **** 0.06
27111 C 66.1759909542028 95.62097123919281 93.46615048158765 C 0.0 **** -0.24
27112 H 66.69156337941692 96.57522263856671 93.56837741280935 H 0.0 **** 0.06
27113 H 66.8423915685268 94.89622648574698 92.99878412603402 H 0.0 **** 0.06
27114 H 65.28865889205582 95.75208632824138 92.84628296477831 H 0.0 **** 0.06
27115 H 65.88002062440688 95.26031922687821 94.45163908460154 H 0.0 **** 0.06
27116 C 87.04979607292654 18.06513706019527 79.82055653952318 C 0.0 **** -0.24
27117 H 86.27050178576198 17.90401142564872 79.07507478419961 H 0.0 **** 0.06
27118 H 87.23103803311119 19.13450595505128 79.93070916247444 H 0.0 **** 0.06
27119 H 87.9668284595129 17.571637746415462 79.49867287895165 H 0.0 **** 0.06
27120 H 86.73027308129792 17.650175427670234 80.7764817260366 H 0.0 **** 0.06
27121 C 66.60000341807081 120.11849615549474 19.928301241572484 C 0.0 **** -0.24
27122 H 66.2428381151331 119.2809569991928 20.52794379627767 H 0.0 **** 0.06
27123 H 66.39057502554334 119.92658409111083 18.874962422570874 H 0.0 **** 0.06
27124 H 67.67379749357137 120.23516279388507 20.070266661122787 H 0.0 **** 0.06
27125 H 66.09085817476274 121.0314153485741 20.239585351304896 H 0.0 **** 0.06
27126 C 101.14801273329499 4.541407325583293 15.490219826143544 C 0.0 **** -0.24
27127 H 100.62379101780198 5.479129392691505 15.305918498122736 H 0.0 **** 0.06
27128 H 102.03165473920677 4.7346034385690245 16.09889802843297 H 0.0 **** 0.06
27129 H 101.45115093466995 4.101233760822879 14.539457713554867 H 0.0 **** 0.06
27130 H 100.488066103293 3.8518201859990313 16.01568917965193 H 0.0 **** 0.06
27131 C 97.08551729653641 80.0524496847142 15.75863027510664 C 0.0 **** -0.24
27132 H 96.53551472542506 80.59770589419365 16.526229742268157 H 0.0 **** 0.06
27133 H 98.15476150786174 80.12634813658165 15.957154580149734 H 0.0 **** 0.06
27134 H 96.86609329908686 80.48091563040552 14.781215799727107 H 0.0 **** 0.06
27135 H 96.78456599831986 79.0045015551555 15.77249156675208 H 0.0 **** 0.06
27136 C 27.469146506344714 78.69216657347528 119.20127277581429 C 0.0 **** -0.24
27137 H 27.698721341944037 79.62011353247959 119.72437015336726 H 0.0 **** 0.06
27138 H 28.008969535872723 78.66612331293567 118.25424957333149 H 0.0 **** 0.06
27139 H 26.39762462597119 78.63771867328933 119.01063878526168 H 0.0 **** 0.06
27140 H 27.771983650620854 77.84454576350271 119.81651396085431 H 0.0 **** 0.06
27141 C 105.27449508488986 93.76757338597128 48.1110919863586 C 0.0 **** -0.24
27142 H 105.3267511644283 93.75388747809876 47.022798357422076 H 0.0 **** 0.06
27143 H 104.28273545152804 93.44716051015047 48.43081451874181 H 0.0 **** 0.06
27144 H 105.4633696120169 94.77968267076363 48.471071626073325 H 0.0 **** 0.06
27145 H 106.0256388767695 93.09075386370145 48.519120700869166 H 0.0 **** 0.06
27146 C 79.44570821391889 43.17668653576021 134.4803471452505 C 0.0 **** -0.24
27147 H 78.71334641311147 42.70245127724783 135.13449638155106 H 0.0 **** 0.06
27148 H 79.7244165523728 44.14696683601173 134.89125206917024 H 0.0 **** 0.06
27149 H 79.01270872971998 43.31183042577433 133.48932160198603 H 0.0 **** 0.06
27150 H 80.33049304853148 42.5440045096872 134.40812994880108 H 0.0 **** 0.06
27151 C 57.01142796324946 124.85752674434134 81.50240718134391 C 0.0 **** -0.24
27152 H 57.56916477984275 125.2019151236064 82.37393767545798 H 0.0 **** 0.06
27153 H 57.68767163111514 124.7648355888644 80.65223546903857 H 0.0 **** 0.06
27154 H 56.22605370658853 125.57602448604626 81.267321358856 H 0.0 **** 0.06
27155 H 56.56310303786759 123.88732694593551 81.71894868757934 H 0.0 **** 0.06
27156 C 18.75854370705747 65.52491688554625 69.334514355647 C 0.0 **** -0.24
27157 H 19.792764003602258 65.44734117807957 68.99858211965932 H 0.0 **** 0.06
27158 H 18.114674912727878 64.95455303274213 68.6644791725202 H 0.0 **** 0.06
27159 H 18.452186690511382 66.57113491948496 69.32801183962698 H 0.0 **** 0.06
27160 H 18.67401691252047 65.12752705409784 70.34602145384406 H 0.0 **** 0.06
27161 C 94.0207604676805 116.74432381949325 88.15530113548823 C 0.0 **** -0.24
27162 H 94.07785974869753 117.65557585192516 88.75167729453716 H 0.0 **** 0.06
27163 H 93.20067865303736 116.82861494103287 87.44191631154001 H 0.0 **** 0.06
27164 H 93.84648547241609 115.89166034134735 88.81143395155391 H 0.0 **** 0.06
27165 H 94.95823333481127 116.60344460498854 87.61715269723021 H 0.0 **** 0.06
27166 C 69.04174605418193 123.02982469933333 98.03015824550945 C 0.0 **** -0.24
27167 H 69.67603750095982 123.16139166185161 98.9064872550299 H 0.0 **** 0.06
27168 H 68.8939263593585 123.99216812738405 97.54114650828268 H 0.0 **** 0.06
27169 H 68.0770930355005 122.62530827476563 98.3375197647278 H 0.0 **** 0.06
27170 H 69.52111878522227 122.33899062638802 97.33619127572047 H 0.0 **** 0.06
27171 C 98.00267910947866 11.410540343015214 44.015970867695614 C 0.0 **** -0.24
27172 H 99.04385887377788 11.70020852632203 43.875952729316225 H 0.0 **** 0.06
27173 H 97.70374901859594 10.732595058595507 43.216718693046744 H 0.0 **** 0.06
27174 H 97.37231560576663 12.300272587041377 43.99255046757423 H 0.0 **** 0.06
27175 H 97.8907305675109 10.91130884567167 44.97843411257804 H 0.0 **** 0.06
27176 C 117.12916928086418 47.3541271069962 107.06000339883057 C 0.0 **** -0.24
27177 H 116.77836825932408 46.69755725249246 107.8556501102695 H 0.0 **** 0.06
27178 H 116.41905602197826 47.33207280588732 106.23189595366182 H 0.0 **** 0.06
27179 H 118.10499120570117 47.0142429743853 106.71139550492266 H 0.0 **** 0.06
27180 H 117.21300667936342 48.37243429839555 107.43989525894294 H 0.0 **** 0.06
27181 C 69.96719724740922 93.49363510150673 125.22465424856921 C 0.0 **** -0.24
27182 H 69.98465041746806 92.59604250201699 125.84198392251761 H 0.0 **** 0.06
27183 H 70.74436909473258 94.18062772028783 125.56083450322626 H 0.0 **** 0.06
27184 H 68.99296777914287 93.9758174998115 125.31103818988225 H 0.0 **** 0.06
27185 H 70.14728712509799 93.22289117744396 124.18451271808084 H 0.0 **** 0.06
27186 C 57.334128143550714 107.11809965127406 85.03567943422843 C 0.0 **** -0.24
27187 H 57.47149102817019 106.0448638354016 85.16457220713426 H 0.0 **** 0.06
27188 H 57.844432457496055 107.64818536165296 85.83959403733897 H 0.0 **** 0.06
27189 H 56.26986791127234 107.35359524736907 85.06337564097481 H 0.0 **** 0.06
27190 H 57.74885036761658 107.42510960886568 84.07621741565671 H 0.0 **** 0.06
27191 C 42.216753050983556 131.71643814307492 64.23716994191244 C 0.0 **** -0.24
27192 H 42.95675428405093 131.2030216743644 64.85052361970138 H 0.0 **** 0.06
27193 H 41.21577321310971 131.41197596848673 64.54477888991 H 0.0 **** 0.06
27194 H 42.368805672349694 131.4575502573354 63.18967670014277 H 0.0 **** 0.06
27195 H 42.323619924158976 132.79395406043488 64.3641463311486 H 0.0 **** 0.06
27196 C 69.38686342710156 104.29053309201191 63.74111692958968 C 0.0 **** -0.24
27197 H 69.42485809136639 105.34366078063647 64.02235634536413 H 0.0 **** 0.06
27198 H 70.34550925600081 103.99350866421099 63.316716540117184 H 0.0 **** 0.06
27199 H 68.59923129931519 104.14102430301136 63.00226725682586 H 0.0 **** 0.06
27200 H 69.17635828775235 103.68645634947 64.62377651677595 H 0.0 **** 0.06
27201 C 20.906135925183094 11.243268379537398 56.42516221839753 C 0.0 **** -0.24
27202 H 21.17202451860669 11.848065967922423 57.291971991343274 H 0.0 **** 0.06
27203 H 19.97574650329085 11.61536694049994 55.99580658317046 H 0.0 **** 0.06
27204 H 20.77511740447372 10.206206432070587 56.73236520799898 H 0.0 **** 0.06
27205 H 21.700841575023475 11.305935476517462 55.682260614036835 H 0.0 **** 0.06
27206 C 26.155149848834526 39.60888932336257 134.9937351451054 C 0.0 **** -0.24
27207 H 26.131113992464606 40.05931711146364 135.98651819921105 H 0.0 **** 0.06
27208 H 26.841207021812323 40.16956985625343 134.3572824364997 H 0.0 **** 0.06
27209 H 25.15582863219771 39.632232175320546 134.55996649260027 H 0.0 **** 0.06
27210 H 26.493687178074083 38.57644494598326 135.07183814644986 H 0.0 **** 0.06
27211 C 45.93686534195007 11.480563014191603 37.35583507061563 C 0.0 **** -0.24
27212 H 45.3036807245162 11.210877108749457 38.20087696195739 H 0.0 **** 0.06
27213 H 46.96969872675186 11.574425676063811 37.692195129432925 H 0.0 **** 0.06
27214 H 45.60207588141651 12.429926514751344 36.939143371630976 H 0.0 **** 0.06
27215 H 45.87264388292351 10.705305700501924 36.59240743325556 H 0.0 **** 0.06
27216 C 108.68255900454896 51.62102145233625 103.32637671974278 C 0.0 **** -0.24
27217 H 107.6271308311535 51.526054969189744 103.07104007595692 H 0.0 **** 0.06
27218 H 108.82316959717149 52.48900694336788 103.97212590162853 H 0.0 **** 0.06
27219 H 109.26597503164625 51.7491587492903 102.41443886593353 H 0.0 **** 0.06
27220 H 109.01295660439408 50.72273296211762 103.84702557696833 H 0.0 **** 0.06
27221 C 22.174972785938223 94.3670596931957 30.77153400869973 C 0.0 **** -0.24
27222 H 22.156455434981694 93.53736835010366 30.064158230554867 H 0.0 **** 0.06
27223 H 22.56651451661088 95.25594980334432 30.277221868551884 H 0.0 **** 0.06
27224 H 22.81359048920561 94.10906025822095 31.616952739302995 H 0.0 **** 0.06
27225 H 21.163661648669375 94.56318376295917 31.12648915134819 H 0.0 **** 0.06
27226 C 89.447973792447 99.37294458332148 87.94144488431473 C 0.0 **** -0.24
27227 H 89.05411760190628 99.3420915240708 86.92536690026299 H 0.0 **** 0.06
27228 H 88.62298089515319 99.4649318048768 88.6476906779361 H 0.0 **** 0.06
27229 H 90.11410731979586 100.22910660858298 88.04640562177295 H 0.0 **** 0.06
27230 H 90.00003753931306 98.4560028368708 88.14475120165699 H 0.0 **** 0.06
27231 C 135.3938357846292 18.50714513912095 120.57285336199082 C 0.0 **** -0.24
27232 H 134.846355307948 19.29804544421529 120.06028835023275 H 0.0 **** 0.06
27233 H 136.06643516953704 18.95037644062313 121.30855522774132 H 0.0 **** 0.06
27234 H 135.97252082806313 17.936599845390162 119.8479563714609 H 0.0 **** 0.06
27235 H 134.68806404675072 17.845922242108145 121.07674486704587 H 0.0 **** 0.06
27236 C 123.32753119589125 93.36418755443009 11.61874588366959 C 0.0 **** -0.24
27237 H 122.47281893602297 92.74502474349693 11.888583545259806 H 0.0 **** 0.06
27238 H 124.1982883288967 92.73045982768207 11.452697056473582 H 0.0 **** 0.06
27239 H 123.53727879664149 94.06585345682178 12.42663140106768 H 0.0 **** 0.06
27240 H 123.10187258979761 93.91837713299417 10.70750926228665 H 0.0 **** 0.06
27241 C 23.06367940789295 134.16391410561948 105.85540792777921 C 0.0 **** -0.24
27242 H 21.98256606831336 134.23388919243607 105.74164313308118 H 0.0 **** 0.06
27243 H 23.489665126806813 135.16594999496505 105.91397708182174 H 0.0 **** 0.06
27244 H 23.48632189923913 133.63940566531775 104.99818665890827 H 0.0 **** 0.06
27245 H 23.298378545494046 133.6153987153318 106.76809422794688 H 0.0 **** 0.06
27246 C 37.66358510824165 46.62642491270266 20.36550775217603 C 0.0 **** -0.24
27247 H 37.20184711239831 47.17144851588451 21.187965831083112 H 0.0 **** 0.06
27248 H 38.543424222616466 47.168243542615144 20.01903156297024 H 0.0 **** 0.06
27249 H 36.94908760476383 46.53086877688017 19.54711514186892 H 0.0 **** 0.06
27250 H 37.957612179551916 45.63387249369741 20.7070335134986 H 0.0 **** 0.06
27251 C 43.21035708614008 29.258720946053586 43.003046184370106 C 0.0 **** -0.24
27252 H 42.590336013845956 28.38707960536587 42.792284878010065 H 0.0 **** 0.06
27253 H 43.805705026577385 29.503169048580588 42.122789937289895 H 0.0 **** 0.06
27254 H 43.87281141351107 29.03855386321939 43.84019418991656 H 0.0 **** 0.06
27255 H 42.57274311445141 30.10455003399082 43.25770788159028 H 0.0 **** 0.06
27256 C 122.38610964223949 126.62368669132547 33.51558815081688 C 0.0 **** -0.24
27257 H 122.32088436984571 125.64183194063531 33.98430551659561 H 0.0 **** 0.06
27258 H 121.39454275010536 126.93547715668842 33.18627537954069 H 0.0 **** 0.06
27259 H 123.05424175675779 126.57087819498634 32.655695817230566 H 0.0 **** 0.06
27260 H 122.77502480178572 127.3446058820586 34.23381340924706 H 0.0 **** 0.06
27261 C 60.21523253123894 57.12865573368428 42.16003304294702 C 0.0 **** -0.24
27262 H 61.20832669913091 57.29358738595293 42.57945841620105 H 0.0 **** 0.06
27263 H 60.247184066027046 57.28414119684993 41.080967011371115 H 0.0 **** 0.06
27264 H 59.511216981906244 57.82960671701234 42.60828060574403 H 0.0 **** 0.06
27265 H 59.896346026302695 56.10830682649666 42.37082091280891 H 0.0 **** 0.06
27266 C 64.23235442877319 81.18586067541658 60.20778597959443 C 0.0 **** -0.24
27267 H 63.32750364170403 80.84576858803128 60.71022744856266 H 0.0 **** 0.06
27268 H 64.89470845151769 81.6597802749384 60.93266145437059 H 0.0 **** 0.06
27269 H 63.9697145514487 81.90392774693932 59.43080718551016 H 0.0 **** 0.06
27270 H 64.73896293897809 80.33218520045996 59.756634007337524 H 0.0 **** 0.06
27271 C 80.33125605949769 98.29914419584787 93.47643081992243 C 0.0 **** -0.24
27272 H 79.35732961087737 98.77840748571904 93.37451390682935 H 0.0 **** 0.06
27273 H 80.26152236982693 97.48334585099954 94.196700481069 H 0.0 **** 0.06
27274 H 81.06137001487309 99.0297849115037 93.82340312585345 H 0.0 **** 0.06
27275 H 80.64382798356696 97.90393409410544 92.5094231306924 H 0.0 **** 0.06
27276 C 43.139533058239294 135.5524592116038 107.03296697214444 C 0.0 **** -0.24
27277 H 43.754717497853704 136.4494678058158 106.9581420060311 H 0.0 **** 0.06
27278 H 42.172619382491234 135.8101204039425 107.46392481931707 H 0.0 **** 0.06
27279 H 43.63898712702911 134.8215507506949 107.66980727382054 H 0.0 **** 0.06
27280 H 42.99369274411521 135.12919160413298 106.0395410006546 H 0.0 **** 0.06
27281 C 21.457377360662086 71.70517914564904 113.89231683162441 C 0.0 **** -0.24
27282 H 20.781483841937956 70.86212567390689 113.74730000470899 H 0.0 **** 0.06
27283 H 22.48081218089061 71.38852949984735 113.689567566732 H 0.0 **** 0.06
27284 H 21.38270729614993 72.05855177832746 114.92036556105512 H 0.0 **** 0.06
27285 H 21.18419713420664 72.51074199733591 113.21021335622689 H 0.0 **** 0.06
27286 C 132.05790761107377 117.13532979337947 71.05588974899047 C 0.0 **** -0.24
27287 H 132.77871567142813 116.36536235929421 70.78359968168016 H 0.0 **** 0.06
27288 H 131.1701567685621 117.03851069170997 70.43031753246034 H 0.0 **** 0.06
27289 H 132.50238608109504 118.11870438055817 70.9068450828227 H 0.0 **** 0.06
27290 H 131.77963783537587 117.01771227642709 72.10343026704592 H 0.0 **** 0.06
27291 C 120.925561547205 51.20015722262971 135.0599261912242 C 0.0 **** -0.24
27292 H 121.02056144462078 51.47953606785303 134.01110995593808 H 0.0 **** 0.06
27293 H 121.89860434843399 50.89266120221184 135.44415790237466 H 0.0 **** 0.06
27294 H 120.21984948074476 50.37419265468563 135.15247405176245 H 0.0 **** 0.06
27295 H 120.56186121561963 52.054589875807494 135.63193321720388 H 0.0 **** 0.06
27296 C 4.498797371368063 9.693460359423625 91.46829119994624 C 0.0 **** -0.24
27297 H 4.8036435941716995 10.369263562050094 90.66867384360876 H 0.0 **** 0.06
27298 H 3.4495270015834656 9.865393162348482 91.70819089404426 H 0.0 **** 0.06
27299 H 5.109128113551563 9.878719318234005 92.35258786834356 H 0.0 **** 0.06
27300 H 4.633992475402469 8.662445890484094 91.1417464079936 H 0.0 **** 0.06
27301 C 101.90558351709811 66.71939641920574 6.664073461921419 C 0.0 **** -0.24
27302 H 102.32621642455558 67.31422035911498 7.474796901637717 H 0.0 **** 0.06
27303 H 102.25151759928647 65.68842852299733 6.753303400781704 H 0.0 **** 0.06
27304 H 102.22799092390875 67.1296060787455 5.706915912998966 H 0.0 **** 0.06
27305 H 100.81714022363568 66.74354129754425 6.722863882374668 H 0.0 **** 0.06
27306 C 84.64552407775355 32.38261074436451 96.11415480589946 C 0.0 **** -0.24
27307 H 85.42109046232034 33.10686501184462 96.3610972105646 H 0.0 **** 0.06
27308 H 83.85888971575326 32.873506655862386 95.54135061946374 H 0.0 **** 0.06
27309 H 84.22493412255052 31.97289968985598 97.03205728777996 H 0.0 **** 0.06
27310 H 85.07809469124136 31.575977200983758 95.52045862735102 H 0.0 **** 0.06
27311 C 26.431422802215934 26.480360024505558 77.7527826908788 C 0.0 **** -0.24
27312 H 26.10214468867335 26.035972751045506 76.81359797478999 H 0.0 **** 0.06
27313 H 26.43965528043279 27.566078545575508 77.65717110092123 H 0.0 **** 0.06
27314 H 27.435174543149486 26.12806343329291 77.98816018912333 H 0.0 **** 0.06
27315 H 25.74747439262562 26.191093271717975 78.55065133821617 H 0.0 **** 0.06
27316 C 19.1999980643875 84.4805455553152 112.42369740887966 C 0.0 **** -0.24
27317 H 19.47316797833423 83.5610499679187 112.94045952047361 H 0.0 **** 0.06
27318 H 20.095578351556014 85.07346597590217 112.24048893917768 H 0.0 **** 0.06
27319 H 18.50543004866688 85.05065179625831 113.03936544673371 H 0.0 **** 0.06
27320 H 18.725704513117535 84.23492992917093 111.47256716649991 H 0.0 **** 0.06
27321 C 30.91160701308621 41.33167018340808 100.56094611254102 C 0.0 **** -0.24
27322 H 30.295859868041134 41.626092549110695 99.71137742060228 H 0.0 **** 0.06
27323 H 31.136415571418425 42.20839871646865 101.16808550322156 H 0.0 **** 0.06
27324 H 31.840911339281305 40.890025942124026 100.19998637171679 H 0.0 **** 0.06
27325 H 30.37180224776749 40.60095425655817 101.16312391395229 H 0.0 **** 0.06
27326 C 101.12658220513985 69.94024749278628 87.42680089689108 C 0.0 **** -0.24
27327 H 101.87715107926854 70.06635584984173 86.64640156478492 H 0.0 **** 0.06
27328 H 101.30159589229983 70.66754556070453 88.22049911322024 H 0.0 **** 0.06
27329 H 101.195005369636 68.93157161276054 87.83657082055451 H 0.0 **** 0.06
27330 H 100.13395207720421 70.0945156380582 87.00405650898152 H 0.0 **** 0.06
27331 C 0.8994049266374873 110.527444509043 103.46024622673843 C 0.0 **** -0.24
27332 H 1.8558872940777178 110.00899088132778 103.38493729531848 H 0.0 **** 0.06
27333 H 0.48381376369241025 110.66989967959333 102.46225493773306 H 0.0 **** 0.06
27334 H 1.0482062813501898 111.49758311966832 103.93420538922362 H 0.0 **** 0.06
27335 H 0.21108730875073434 109.93128928254666 104.05980930968116 H 0.0 **** 0.06
27336 C 116.3806747842936 92.85114958668402 112.26929340212567 C 0.0 **** -0.24
27337 H 115.42632467231851 92.69295531853581 112.77158365613084 H 0.0 **** 0.06
27338 H 116.85805384253297 93.74457198543692 112.67121589763315 H 0.0 **** 0.06
27339 H 116.21123806957192 92.97895602809757 111.20005498863026 H 0.0 **** 0.06
27340 H 117.02532738688171 91.98729599588003 112.43382028119919 H 0.0 **** 0.06
27341 C 62.82771534514518 15.414671271351345 108.11469591291274 C 0.0 **** -0.24
27342 H 62.85473601716416 15.916460532243164 107.14728726261393 H 0.0 **** 0.06
27343 H 62.48602809465115 16.114786783595093 108.87744304118048 H 0.0 **** 0.06
27344 H 63.82632215980959 15.059355049309673 108.36797412224169 H 0.0 **** 0.06
27345 H 62.14345608583352 14.567863008139874 108.06515727269876 H 0.0 **** 0.06
27346 C 22.360674968683206 89.99334395375358 51.534119406030555 C 0.0 **** -0.24
27347 H 22.587703097322816 88.93554923055865 51.39468232990231 H 0.0 **** 0.06
27348 H 23.289659249136697 90.56375382354001 51.561776181793476 H 0.0 **** 0.06
27349 H 21.82373856293026 90.1280923144583 52.47314189927113 H 0.0 **** 0.06
27350 H 21.74241738490411 90.34300541799702 50.708093726572855 H 0.0 **** 0.06
27351 C 49.11015180092767 15.13385928233214 79.35967621572689 C 0.0 **** -0.24
27352 H 50.00814953324624 14.775171335996902 79.861699167946 H 0.0 **** 0.06
27353 H 48.23808033014447 14.618276907798474 79.76259339499592 H 0.0 **** 0.06
27354 H 49.18869417984649 14.935752185724766 78.29015773077836 H 0.0 **** 0.06
27355 H 49.00656247426093 16.206380839124733 79.52380061162603 H 0.0 **** 0.06
27356 C 50.91964391029762 14.040023826419258 125.16837949912961 C 0.0 **** -0.24
27357 H 50.080806847432314 14.63876895230193 125.52408407360885 H 0.0 **** 0.06
27358 H 51.03483160733282 13.162520932383288 125.80522529051224 H 0.0 **** 0.06
27359 H 51.83132680779579 14.635811157371435 125.2010562573491 H 0.0 **** 0.06
27360 H 50.729529521277584 13.723002226548928 124.14233371699599 H 0.0 **** 0.06
27361 C 40.246802811222274 72.09567196621236 78.18499662665755 C 0.0 **** -0.24
27362 H 40.04501046388539 71.94126021332858 77.12470046383669 H 0.0 **** 0.06
27363 H 41.30084448790699 72.33559036842793 78.3223040708153 H 0.0 **** 0.06
27364 H 40.0052570967 71.18661957827032 78.73592265799101 H 0.0 **** 0.06
27365 H 39.63515371475852 72.91817202317412 78.55441110110287 H 0.0 **** 0.06
27366 C 37.569722911403915 98.62846572118644 115.87710767064246 C 0.0 **** -0.24
27367 H 38.64231810254586 98.51591149830753 115.71998621625909 H 0.0 **** 0.06
27368 H 37.28519583831218 99.66855596550629 115.71737446366868 H 0.0 **** 0.06
27369 H 37.31998232789499 98.3356500866568 116.89758832767455 H 0.0 **** 0.06
27370 H 37.031575464636035 97.99250212362547 115.17413135824953 H 0.0 **** 0.06
27371 C 67.91316787051385 45.994241256309664 76.20838235951553 C 0.0 **** -0.24
27372 H 68.49094240471263 46.880841014308345 75.9463794238013 H 0.0 **** 0.06
27373 H 68.44030155417254 45.43284966494683 76.98097714812805 H 0.0 **** 0.06
27374 H 67.7897405788678 45.36711531792801 75.32485597562831 H 0.0 **** 0.06
27375 H 66.93406956555823 46.29477029494528 76.58068847418537 H 0.0 **** 0.06
27376 C 94.20928420410075 2.937996981961419 29.49625510110539 C 0.0 **** -0.24
27377 H 93.19940317258965 2.544955804726442 29.61838229097725 H 0.0 **** 0.06
27378 H 94.73884181259074 2.8788375673697715 30.447179897720844 H 0.0 **** 0.06
27379 H 94.15732339655003 3.976574108050187 29.172207869626874 H 0.0 **** 0.06
27380 H 94.73893637062221 2.3493918914798826 28.746924259958945 H 0.0 **** 0.06
27381 C 95.1153441285981 48.793798569976616 74.98273631087386 C 0.0 **** -0.24
27382 H 95.96129665462685 49.47122756466416 75.09960524353318 H 0.0 **** 0.06
27383 H 95.27035578607212 48.16615871523085 74.10522810293196 H 0.0 **** 0.06
27384 H 94.20083654594215 49.37416273791108 74.85817949017854 H 0.0 **** 0.06
27385 H 95.02839858191754 48.16610692353301 75.86957605282379 H 0.0 **** 0.06
27386 C 108.91637308551186 4.012220462554573 40.846412151209904 C 0.0 **** -0.24
27387 H 108.10216206524939 3.303550476604695 40.999436165572035 H 0.0 **** 0.06
27388 H 109.54859577751165 4.037386581784549 41.73343478439335 H 0.0 **** 0.06
27389 H 108.5033917549777 5.004440385483125 40.66473632712206 H 0.0 **** 0.06
27390 H 109.50915853061966 3.7020207469107937 39.98558601356768 H 0.0 **** 0.06
27391 C 31.981195117018387 37.00914151273628 104.32344236035553 C 0.0 **** -0.24
27392 H 32.2373752329155 37.004796770575325 105.38247866364848 H 0.0 **** 0.06
27393 H 32.71347006742815 37.60260010621653 103.7748537937792 H 0.0 **** 0.06
27394 H 30.989222986785308 37.44275916146424 104.19159339248309 H 0.0 **** 0.06
27395 H 31.984712180944257 35.986410012689106 103.94484359151122 H 0.0 **** 0.06
27396 C 96.00357738563342 62.66839219299851 90.06593987910031 C 0.0 **** -0.24
27397 H 97.04203168174895 62.6918083776346 90.39770102913559 H 0.0 **** 0.06
27398 H 95.35387483386376 62.46682706160851 90.91827268109364 H 0.0 **** 0.06
27399 H 95.87881205530637 61.883153200074105 89.32026809983813 H 0.0 **** 0.06
27400 H 95.74065001493116 63.63086932007488 89.62729648167385 H 0.0 **** 0.06
27401 C 132.4351915664069 65.81041889332228 51.133670384768706 C 0.0 **** -0.24
27402 H 132.62432364347444 65.86825134548342 50.06137678455458 H 0.0 **** 0.06
27403 H 132.9118580562889 64.91727363246085 51.53830440157897 H 0.0 **** 0.06
27404 H 131.3603799325544 65.76120384136478 51.30981498021555 H 0.0 **** 0.06
27405 H 132.84375651640386 66.69501515155915 51.622055680013204 H 0.0 **** 0.06
27406 C 121.7344572767646 63.16285292871521 42.339453408468415 C 0.0 **** -0.24
27407 H 122.73603191235406 63.4829003261121 42.62560536997087 H 0.0 **** 0.06
27408 H 121.14838646567654 62.95836350631065 43.236066587993776 H 0.0 **** 0.06
27409 H 121.80087627264197 62.25738834570619 41.73540248632946 H 0.0 **** 0.06
27410 H 121.25174833032918 63.95053640944104 41.76140250620928 H 0.0 **** 0.06
27411 C 57.86575574047592 123.84057989364314 87.6098657404869 C 0.0 **** -0.24
27412 H 57.31462141840571 122.98576427166216 88.00352718734277 H 0.0 **** 0.06
27413 H 58.48636603672476 124.26586560468813 88.39907231780964 H 0.0 **** 0.06
27414 H 57.16134765427468 124.59271874420149 87.25471864953867 H 0.0 **** 0.06
27415 H 58.497565475763466 123.5152898968034 86.78416066166544 H 0.0 **** 0.06
27416 C 45.47705966337372 81.90801675054703 59.011080894487264 C 0.0 **** -0.24
27417 H 44.67369776789113 82.44645585899633 58.506453171173746 H 0.0 **** 0.06
27418 H 46.325574342214395 81.80575720472855 58.33389338033851 H 0.0 **** 0.06
27419 H 45.12344590577655 80.91879969640672 59.302717684404854 H 0.0 **** 0.06
27420 H 45.78327351653269 82.46094672780589 59.89826943628293 H 0.0 **** 0.06
27421 C 1.3693689220997562 72.22725895612348 103.96824370532812 C 0.0 **** -0.24
27422 H 0.6287444845523318 73.00996960372485 103.80458693294352 H 0.0 **** 0.06
27423 H 2.3127902679051893 72.67710053722436 104.27690980045148 H 0.0 **** 0.06
27424 H 1.5180201812833047 71.66880859496054 103.04404456046298 H 0.0 **** 0.06
27425 H 1.0164314688380003 71.55153710990284 104.74783092970648 H 0.0 **** 0.06
27426 C 7.455490116804128 26.192942139156344 27.707115945658686 C 0.0 **** -0.24
27427 H 7.277973452863819 26.317117008901874 28.77532261700643 H 0.0 **** 0.06
27428 H 8.386241890598939 25.646739787028082 27.554468704309897 H 0.0 **** 0.06
27429 H 7.525494834550642 27.172446362619667 27.233972329189328 H 0.0 **** 0.06
27430 H 6.629415703510659 25.634610262175144 27.26518416070506 H 0.0 **** 0.06
27431 C 49.38564897868068 64.75400407255204 124.42071503048902 C 0.0 **** -0.24
27432 H 49.40455852391635 64.12340244681361 123.53256525629087 H 0.0 **** 0.06
27433 H 50.21796852961897 65.45604751230582 124.38592743572383 H 0.0 **** 0.06
27434 H 49.47303310539742 64.12982052404189 125.31068527098341 H 0.0 **** 0.06
27435 H 48.446161021267585 65.30483176661971 124.45443814870072 H 0.0 **** 0.06
27436 C 134.282015804883 60.45116311922419 0.4229034765576216 C 0.0 **** -0.24
27437 H 133.70619096042944 60.42358512030816 -0.502321510684169 H 0.0 **** 0.06
27438 H 133.6311607246616 60.212375510484065 1.263080917005368 H 0.0 **** 0.06
27439 H 134.70186949183187 61.4474304071212 0.5591363698808323 H 0.0 **** 0.06
27440 H 135.08959201217374 59.721017692738315 0.3690017898081521 H 0.0 **** 0.06
27441 C 68.46506934537253 75.92809843656784 36.08836062271103 C 0.0 **** -0.24
27442 H 67.39927221810191 75.76227767250055 36.247014466663416 H 0.0 **** 0.06
27443 H 68.64830182236012 76.99250148406077 35.93842691840765 H 0.0 **** 0.06
27444 H 68.79125644984406 75.37556476524873 35.20677704024661 H 0.0 **** 0.06
27445 H 69.02036260266985 75.5823487153774 36.96036670018356 H 0.0 **** 0.06
27446 C 97.08847570231798 132.36787321078418 54.22865736278783 C 0.0 **** -0.24
27447 H 96.68988924907251 131.8818832066819 55.11920304846865 H 0.0 **** 0.06
27448 H 98.13635702248934 132.62157417459798 54.39145988034883 H 0.0 **** 0.06
27449 H 96.5206180950185 133.2755650286691 54.0252185580335 H 0.0 **** 0.06
27450 H 97.00703674540817 131.69002138946394 53.37879756305212 H 0.0 **** 0.06
27451 C 28.143467857299413 14.54103112753404 133.63921490488858 C 0.0 **** -0.24
27452 H 27.76499958512136 14.314816907015313 132.64252039716118 H 0.0 **** 0.06
27453 H 29.202620768272936 14.288758888805944 133.69128114273437 H 0.0 **** 0.06
27454 H 27.592815406196394 13.958557786841595 134.37782897503592 H 0.0 **** 0.06
27455 H 28.01224868916904 15.604150526683213 133.8435180739944 H 0.0 **** 0.06
27456 C 11.72692419836153 87.32345312610158 123.1434512583056 C 0.0 **** -0.24
27457 H 12.03325143505515 86.30802268477566 122.89335392509857 H 0.0 **** 0.06
27458 H 12.248862485308194 88.03022038103279 122.49682414409554 H 0.0 **** 0.06
27459 H 11.974051376627642 87.53235732799993 124.18398007678674 H 0.0 **** 0.06
27460 H 10.65110605291926 87.42517447393914 122.99824388831333 H 0.0 **** 0.06
27461 C 98.9846331418416 129.55557110933609 7.303868086705901 C 0.0 **** -0.24
27462 H 99.1147522399638 129.041905721202 8.255924759983415 H 0.0 **** 0.06
27463 H 97.97082935333998 129.95074290582937 7.240274164674911 H 0.0 **** 0.06
27464 H 99.15282591704441 128.8536871963252 6.4865124318792375 H 0.0 **** 0.06
27465 H 99.7005771599413 130.37439308168194 7.23214775196962 H 0.0 **** 0.06
27466 C 45.75162580900795 79.26403113149203 106.19437788736931 C 0.0 **** -0.24
27467 H 46.32706763853963 80.17061396720834 106.37967572949782 H 0.0 **** 0.06
27468 H 44.979351235743195 79.46899501883422 105.45196228975203 H 0.0 **** 0.06
27469 H 45.28460476877615 78.93384410654846 107.1227317954981 H 0.0 **** 0.06
27470 H 46.414840963063966 78.48193651862992 105.82291348376984 H 0.0 **** 0.06
27471 C 102.37423945030599 119.06490325282044 15.085798468942478 C 0.0 **** -0.24
27472 H 103.178590324276 119.64272196822247 15.540021126292892 H 0.0 **** 0.06
27473 H 101.99985154647308 118.33555067573664 15.804924766230165 H 0.0 **** 0.06
27474 H 102.75232450148366 118.54619625723424 14.204215881091962 H 0.0 **** 0.06
27475 H 101.56543134940887 119.73445352358476 14.793059753450898 H 0.0 **** 0.06
27476 C 112.9569064091651 69.75546517015874 45.88397743588149 C 0.0 **** -0.24
27477 H 113.34904589217518 68.9625271237808 46.52028861015816 H 0.0 **** 0.06
27478 H 112.45086792944991 70.49880526078533 46.50024819069512 H 0.0 **** 0.06
27479 H 112.25101036711504 69.33269298917492 45.17025308779435 H 0.0 **** 0.06
27480 H 113.77928920898552 70.2288651464612 45.345613103198616 H 0.0 **** 0.06
27481 C 16.151918864583195 111.11916397409092 57.359653733782054 C 0.0 **** -0.24
27482 H 17.15837407075827 110.94636778639767 57.74243110273211 H 0.0 **** 0.06
27483 H 16.052614161635624 110.65519893864035 56.37711915689651 H 0.0 **** 0.06
27484 H 15.97480690423761 112.19089483401893 57.27517099367955 H 0.0 **** 0.06
27485 H 15.423421770651807 110.68249875306387 58.04302811421071 H 0.0 **** 0.06
27486 C 82.53196000891681 98.44573089444594 10.280691404058985 C 0.0 **** -0.24
27487 H 82.4414521689863 99.13328566187144 11.12135115256035 H 0.0 **** 0.06
27488 H 82.20440360134192 98.94377638391279 9.367252502558586 H 0.0 **** 0.06
27489 H 81.90878216171157 97.56895600655247 10.459390231691543 H 0.0 **** 0.06
27490 H 83.57124865287716 98.13711953592065 10.173704742350765 H 0.0 **** 0.06
27491 C 30.14250937619866 3.972982719607984 50.79939320666108 C 0.0 **** -0.24
27492 H 29.883741132149453 3.0648691946905444 50.25529223821155 H 0.0 **** 0.06
27493 H 30.293265639262287 3.7339739810915944 51.85315434379737 H 0.0 **** 0.06
27494 H 29.33347438812114 4.697467695911229 50.703393240138496 H 0.0 **** 0.06
27495 H 31.05899712842291 4.395142847361029 50.387844834790286 H 0.0 **** 0.06
27496 C 74.70096998105248 131.96108853367343 23.816271453323147 C 0.0 **** -0.24
27497 H 74.39164709224497 130.94509868513353 24.06472288000665 H 0.0 **** 0.06
27498 H 75.76546166793881 131.96840706353476 23.577298543651565 H 0.0 **** 0.06
27499 H 74.51466805674434 132.61516232133158 24.667369613884333 H 0.0 **** 0.06
27500 H 74.13219868292285 132.3123948405302 22.955295753680836 H 0.0 **** 0.06
27501 C 87.69624915804908 134.39480094278375 13.219363314956183 C 0.0 **** -0.24
27502 H 87.27207654255575 135.3170813813784 13.617574933008427 H 0.0 **** 0.06
27503 H 88.78106466994484 134.41632970714255 13.333082167611792 H 0.0 **** 0.06
27504 H 87.44204286118341 134.30485739729818 12.163486259981198 H 0.0 **** 0.06
27505 H 87.29058443870646 133.543374407622 13.764876839062936 H 0.0 **** 0.06
27506 C 118.4334804733229 86.27306859545547 95.28398801077914 C 0.0 **** -0.24
27507 H 117.87982585377671 85.59077869665987 94.63957581206964 H 0.0 **** 0.06
27508 H 117.7422073384962 86.97445750163251 95.75110267818896 H 0.0 **** 0.06
27509 H 119.16305176849431 86.82246787537576 94.68889875281488 H 0.0 **** 0.06
27510 H 118.95100118053665 85.70342300341167 96.0563741292924 H 0.0 **** 0.06
27511 C 7.812933396206859 82.61277989009027 26.10778850387922 C 0.0 **** -0.24
27512 H 7.500432849123399 82.52256031229606 27.14781055513427 H 0.0 **** 0.06
27513 H 7.924107888620256 81.6179202429246 25.67486975582949 H 0.0 **** 0.06
27514 H 8.766905549496471 83.13861939724914 26.05956981412362 H 0.0 **** 0.06
27515 H 7.061483291847367 83.17048454904817 25.550391663986602 H 0.0 **** 0.06
27516 C 56.311332078967325 39.61775166942281 115.2966456557659 C 0.0 **** -0.24
27517 H 57.12079709229715 39.43277481651368 116.00417877042293 H 0.0 **** 0.06
27518 H 55.73225963310284 38.70425405076245 115.16008328468467 H 0.0 **** 0.06
27519 H 56.73121806286474 39.928874537909074 114.33974941625598 H 0.0 **** 0.06
27520 H 55.66458455959253 40.40467393304464 115.68373224152296 H 0.0 **** 0.06
27521 C 122.54644164779126 68.48742404779942 46.65316118411229 C 0.0 **** -0.24
27522 H 122.04393614128406 68.96662491800478 45.81297025218868 H 0.0 **** 0.06
27523 H 121.81067128820553 68.21504598033914 47.40959307875711 H 0.0 **** 0.06
27524 H 123.27251213296856 69.17829173456573 47.08376963165841 H 0.0 **** 0.06
27525 H 123.05953358414116 67.59154953611213 46.305354446452384 H 0.0 **** 0.06
27526 C 105.04612664528462 6.388408691902015 66.81254754000048 C 0.0 **** -0.24
27527 H 105.23243475171788 7.323784106509038 67.34095857319608 H 0.0 **** 0.06
27528 H 105.41588828626566 5.554742035539249 67.4091917208142 H 0.0 **** 0.06
27529 H 105.56094814770825 6.404673785797087 65.852219833998 H 0.0 **** 0.06
27530 H 103.97513863198085 6.272079278125773 66.649632968115 H 0.0 **** 0.06
27531 C 13.516845980776353 125.75638590620723 59.17135148554591 C 0.0 **** -0.24
27532 H 13.202596660403994 126.72028770027853 58.77259128101461 H 0.0 **** 0.06
27533 H 14.604215489906508 125.72863572189067 59.23978047704773 H 0.0 **** 0.06
27534 H 13.172886867484877 124.96056851359099 58.51157514929446 H 0.0 **** 0.06
27535 H 13.087579192967564 125.61689825659815 60.16352600847242 H 0.0 **** 0.06
27536 C 45.767710190893325 38.02850800415672 98.51764814997136 C 0.0 **** -0.24
27537 H 46.76038285662352 37.622238324699225 98.71275583182012 H 0.0 **** 0.06
27538 H 45.01964790552549 37.4144575625661 99.01933823919501 H 0.0 **** 0.06
27539 H 45.579629552977224 38.02652101502946 97.44445071131233 H 0.0 **** 0.06
27540 H 45.71321196418586 39.04978410537041 98.89494795221651 H 0.0 **** 0.06
27541 C 9.799967549824935 92.19232467351753 25.524994804199025 C 0.0 **** -0.24
27542 H 10.558413746177497 92.91667720094327 25.226636153994207 H 0.0 **** 0.06
27543 H 10.230704494057392 91.48690587537448 26.2349265065115 H 0.0 **** 0.06
27544 H 9.447112048432938 91.65387991663567 24.645109399652767 H 0.0 **** 0.06
27545 H 8.965026982619861 92.71420751984249 25.99174159900599 H 0.0 **** 0.06
27546 C 117.23450711456104 134.7691055012262 117.82309536777188 C 0.0 **** -0.24
27547 H 117.93007133015129 134.88843359027135 116.99292836626807 H 0.0 **** 0.06
27548 H 116.38229307895037 134.17024282006264 117.49995631862487 H 0.0 **** 0.06
27549 H 116.88718500664132 135.74992100761295 118.14915425314109 H 0.0 **** 0.06
27550 H 117.73745393247174 134.26917414842745 118.64998480088235 H 0.0 **** 0.06
27551 C 129.37827059541613 65.87895270918874 126.76738796438642 C 0.0 **** -0.24
27552 H 129.27747616586822 66.93008473911601 127.03750459805363 H 0.0 **** 0.06
27553 H 129.60468503873722 65.29539062944038 127.65997570807679 H 0.0 **** 0.06
27554 H 130.18579115315538 65.76609285960727 126.04422944074113 H 0.0 **** 0.06
27555 H 128.44431255516992 65.52602866254703 126.32930567967342 H 0.0 **** 0.06
27556 C 102.82488344660408 32.714795465630175 117.11790261555691 C 0.0 **** -0.24
27557 H 102.56483754442388 32.86413570356011 116.06978110462589 H 0.0 **** 0.06
27558 H 101.94345749269792 32.38227557084841 117.66614240495869 H 0.0 **** 0.06
27559 H 103.18277988987478 33.654581620145294 117.53944884388363 H 0.0 **** 0.06
27560 H 103.6080252341975 31.961225572602388 117.19348278856995 H 0.0 **** 0.06
27561 C 73.72192501985039 44.74664194178051 73.09443577025175 C 0.0 **** -0.24
27562 H 73.65622277549917 43.66671409284206 73.23425783974008 H 0.0 **** 0.06
27563 H 72.72012702357426 45.15809997033347 72.97565834653125 H 0.0 **** 0.06
27564 H 74.31248280462131 44.962054371205795 72.20359286574177 H 0.0 **** 0.06
27565 H 74.19961252384687 45.1957290050417 73.96505997640242 H 0.0 **** 0.06
27566 C 27.765149445940494 68.53554469886431 102.53317615739886 C 0.0 **** -0.24
27567 H 27.428546090835994 67.76171913334794 101.84215278028461 H 0.0 **** 0.06
27568 H 27.85570188500543 68.11233107137508 103.53438623456432 H 0.0 **** 0.06
27569 H 27.040948731124104 69.35033418569378 102.54631000919738 H 0.0 **** 0.06
27570 H 28.73447306566041 68.91465336068137 102.20933297233256 H 0.0 **** 0.06
27571 C 131.03101890433956 54.85803328411089 67.09334965832502 C 0.0 **** -0.24
27572 H 131.77508066160493 55.19788106211962 67.81295482636912 H 0.0 **** 0.06
27573 H 131.44313239271096 54.037216124637666 66.50513218692919 H 0.0 **** 0.06
27574 H 130.76374790218597 55.68163660540222 66.43103790634513 H 0.0 **** 0.06
27575 H 130.1428904616651 54.515836177579104 67.62381834992894 H 0.0 **** 0.06
27576 C 87.09331234172022 25.85193428839449 101.43341994837684 C 0.0 **** -0.24
27577 H 86.02895163590607 26.012881070424527 101.2619017656757 H 0.0 **** 0.06
27578 H 87.43048918674675 26.494286267112216 102.24756110326976 H 0.0 **** 0.06
27579 H 87.64770307628255 26.093035668288962 100.52647888297014 H 0.0 **** 0.06
27580 H 87.26432174556035 24.809067588990004 101.69842154031335 H 0.0 **** 0.06
27581 C 91.03305149687527 124.40987325603629 86.80698707659387 C 0.0 **** -0.24
27582 H 91.0560319010392 124.87448504284475 87.79216157765114 H 0.0 **** 0.06
27583 H 90.52442638332931 125.07077866081198 86.10554244252323 H 0.0 **** 0.06
27584 H 90.4995691461426 123.46152408790573 86.86548892005611 H 0.0 **** 0.06
27585 H 92.05315895454166 124.23308828962087 86.46569991928774 H 0.0 **** 0.06
27586 C 107.62292997251626 110.72783539972636 82.30807577166127 C 0.0 **** -0.24
27587 H 108.2257736090156 110.0085233452665 81.75477772579313 H 0.0 **** 0.06
27588 H 106.71663319143909 110.24067625255432 82.66965042992791 H 0.0 **** 0.06
27589 H 107.35313341259999 111.55670578979314 81.65301791747453 H 0.0 **** 0.06
27590 H 108.19522683946445 111.10564150954033 83.15588173093943 H 0.0 **** 0.06
27591 C 47.03290704126425 99.37921936805012 24.827387726115234 C 0.0 **** -0.24
27592 H 47.47258314878826 98.80456184549959 24.013072279213333 H 0.0 **** 0.06
27593 H 46.01681908399206 99.02983558562148 25.011440192362784 H 0.0 **** 0.06
27594 H 47.01190139285006 100.43457449847062 24.556280080842953 H 0.0 **** 0.06
27595 H 47.63161924014713 99.24795934343068 25.72932487495285 H 0.0 **** 0.06
27596 C 90.53337014989685 59.56113411110107 97.72929513180773 C 0.0 **** -0.24
27597 H 89.81118292918916 60.378613085020675 97.73606929672945 H 0.0 **** 0.06
27598 H 90.01698199692153 58.62268693700753 97.52581228600837 H 0.0 **** 0.06
27599 H 91.02321789103902 59.502457919199855 98.70137350694017 H 0.0 **** 0.06
27600 H 91.27902173335477 59.742446939660056 96.9561060405959 H 0.0 **** 0.06
27601 C 22.67052429694985 58.31981141010495 41.33265663712535 C 0.0 **** -0.24
27602 H 22.407589798980553 58.871222019641095 42.23557405712302 H 0.0 **** 0.06
27603 H 22.523570453197834 58.95981779928053 40.46199912434275 H 0.0 **** 0.06
27604 H 22.033620054498925 57.43823397794863 41.24803178111469 H 0.0 **** 0.06
27605 H 23.713812755784858 58.01079939918253 41.386039871807554 H 0.0 **** 0.06
27606 C 25.856814177271133 32.139043339208115 37.90891347143622 C 0.0 **** -0.24
27607 H 26.437167720500298 32.03495340484369 38.82617633159006 H 0.0 **** 0.06
27608 H 25.080545063899365 32.891179411171265 38.05438758555408 H 0.0 **** 0.06
27609 H 25.396447057303618 31.183041914306727 37.659906559829324 H 0.0 **** 0.06
27610 H 26.515176427961848 32.448068378885296 37.09731214574788 H 0.0 **** 0.06
27611 C 64.92863763672074 116.88802409129923 128.0434859887786 C 0.0 **** -0.24
27612 H 64.15238572082 117.65371165812462 128.02259030637578 H 0.0 **** 0.06
27613 H 65.48080495350621 116.90632961670829 127.10370716478513 H 0.0 **** 0.06
27614 H 64.46918908916018 115.9089522735058 128.17696048527233 H 0.0 **** 0.06
27615 H 65.6108610687536 117.08489587297586 128.8704217468227 H 0.0 **** 0.06
27616 C 12.341757064823923 37.830014062363205 3.0859693424273473 C 0.0 **** -0.24
27617 H 11.97893788773274 38.85099881469381 2.9625493413305435 H 0.0 **** 0.06
27618 H 13.431543530626783 37.825485887180946 3.0569687446034095 H 0.0 **** 0.06
27619 H 11.95298323191571 37.20842253732383 2.2794906157033665 H 0.0 **** 0.06
27620 H 12.001357347480564 37.43748528066277 4.044047230059675 H 0.0 **** 0.06
27621 C 0.1209826323832317 96.95519162181711 121.87458721949855 C 0.0 **** -0.24
27622 H -0.5681803736831057 96.11058198986028 121.85877571168618 H 0.0 **** 0.06
27623 H 0.5989354297481668 97.01587072309907 122.85278723658246 H 0.0 **** 0.06
27624 H -0.42804375580647047 97.87574780288942 121.6800715673001 H 0.0 **** 0.06
27625 H 0.8825314943820217 96.8168438105752 121.10615547599156 H 0.0 **** 0.06
27626 C 103.23545089042784 106.88135182037394 49.85739983796435 C 0.0 **** -0.24
27627 H 103.18165535762655 107.9612195221049 49.726358775080115 H 0.0 **** 0.06
27628 H 103.66589098992365 106.65421059032383 50.83294238710471 H 0.0 **** 0.06
27629 H 103.86088541229464 106.45093201003434 49.0758075714167 H 0.0 **** 0.06
27630 H 102.23256777290395 106.45727447808213 49.794957963721615 H 0.0 **** 0.06
27631 C 85.78984191117601 53.32537210321641 49.665040779250546 C 0.0 **** -0.24
27632 H 86.71272898677205 52.74497773575568 49.67159133666652 H 0.0 **** 0.06
27633 H 85.95138813390537 54.25741914528999 49.12212618290988 H 0.0 **** 0.06
27634 H 85.4937265811766 53.54836398266774 50.69089090112294 H 0.0 **** 0.06
27635 H 85.0028773162104 52.75082501255163 49.17595341189883 H 0.0 **** 0.06
27636 C 96.27761912894235 17.89292901265202 56.044836716567005 C 0.0 **** -0.24
27637 H 95.50270728461379 18.470157581897297 56.548224069240234 H 0.0 **** 0.06
27638 H 95.86066533828063 17.422458101372996 55.153901388025474 H 0.0 **** 0.06
27639 H 96.65433659692025 17.12438542973922 56.719595015328935 H 0.0 **** 0.06
27640 H 97.09441012962185 18.555263595900925 55.75764090742118 H 0.0 **** 0.06
27641 C 21.393546595031694 89.75479514113005 110.02057615075185 C 0.0 **** -0.24
27642 H 20.889332525059686 89.69361033778839 109.05578514461433 H 0.0 **** 0.06
27643 H 21.548588523854463 90.80183219967205 110.28255229424067 H 0.0 **** 0.06
27644 H 22.3573073166326 89.24861670658957 109.95857000157773 H 0.0 **** 0.06
27645 H 20.7793885308199 89.27495946094695 110.78299118349315 H 0.0 **** 0.06
27646 C 78.29275399503666 126.09998378057283 60.054785422507265 C 0.0 **** -0.24
27647 H 79.18795117481078 125.50140222653275 60.227175254837505 H 0.0 **** 0.06
27648 H 77.52396875113848 125.819191843075 60.7747591752848 H 0.0 **** 0.06
27649 H 77.9258583360518 125.92087824721256 59.043648987169945 H 0.0 **** 0.06
27650 H 78.5338523560231 127.15638273776538 60.17241993328936 H 0.0 **** 0.06
27651 C 54.43478053797513 56.840381311094674 16.733615228022728 C 0.0 **** -0.24
27652 H 55.179989103889426 57.24196288955102 17.419442056113 H 0.0 **** 0.06
27653 H 54.043368380484196 55.903901796858264 17.130091798910016 H 0.0 **** 0.06
27654 H 54.895473734834255 56.658859499662796 15.761989412624942 H 0.0 **** 0.06
27655 H 53.621340445128624 57.55676164161444 16.620127415432663 H 0.0 **** 0.06
27656 C 56.34680184258315 78.60969211145743 15.240389841128547 C 0.0 **** -0.24
27657 H 56.82834133985011 79.0783251600519 14.382220374638194 H 0.0 **** 0.06
27658 H 57.0823242036123 78.02789632318604 15.796276157692859 H 0.0 **** 0.06
27659 H 55.548853651793195 77.95243795543249 14.895002064610424 H 0.0 **** 0.06
27660 H 55.928311514456254 79.3805829088395 15.887438745417342 H 0.0 **** 0.06
27661 C 93.2589691134284 27.291019002257457 69.13582368926589 C 0.0 **** -0.24
27662 H 93.2471078867386 26.784976651064625 68.17096438922464 H 0.0 **** 0.06
27663 H 92.883043324082 26.61505005724308 69.90447893947261 H 0.0 **** 0.06
27664 H 92.62587430586098 28.177647652179985 69.0898594999297 H 0.0 **** 0.06
27665 H 94.27997147909605 27.58531614546223 69.3788903967816 H 0.0 **** 0.06
27666 C 57.94285970211489 20.387053950986584 26.074193809409337 C 0.0 **** -0.24
27667 H 57.24583063171123 20.888305257560944 26.74608419091021 H 0.0 **** 0.06
27668 H 57.391454952772875 19.94136246323231 25.246109286945455 H 0.0 **** 0.06
27669 H 58.474603639722986 19.606291894203387 26.61934619508736 H 0.0 **** 0.06
27670 H 58.6580145123483 21.11200386249859 25.686492573444013 H 0.0 **** 0.06
27671 C 96.24530761278137 102.19654538605677 87.43587925313025 C 0.0 **** -0.24
27672 H 95.57250949113691 101.33990276479629 87.45064760987943 H 0.0 **** 0.06
27673 H 96.47539128338403 102.45923231929706 86.40308829434991 H 0.0 **** 0.06
27674 H 97.16669663151615 101.9449670709154 87.96123979250788 H 0.0 **** 0.06
27675 H 95.76577171960385 103.04399649083862 87.92777772458464 H 0.0 **** 0.06
27676 C 74.84379640292353 37.55620908898541 99.25239673144958 C 0.0 **** -0.24
27677 H 75.3458557392549 38.489893360208896 98.99791846346805 H 0.0 **** 0.06
27678 H 74.26534441101043 37.21011276033596 98.39579081913864 H 0.0 **** 0.06
27679 H 74.17792895541709 37.721017040396816 100.09866139370871 H 0.0 **** 0.06
27680 H 75.58798910964445 36.804351310535765 99.51622847086341 H 0.0 **** 0.06
27681 C 33.84653208688633 124.77034358355905 118.05123965524425 C 0.0 **** -0.24
27682 H 34.661606625645305 124.94999568456564 117.3506258872375 H 0.0 **** 0.06
27683 H 32.91327715607082 125.13924927591893 117.62646458803803 H 0.0 **** 0.06
27684 H 34.05123244721676 125.29085140430988 118.98711863276438 H 0.0 **** 0.06
27685 H 33.761567332023105 123.70004785612173 118.24218770991473 H 0.0 **** 0.06
27686 C 128.7274827862659 17.32719976444463 27.528186396608362 C 0.0 **** -0.24
27687 H 128.82991516509082 18.13704797396025 28.250030226561478 H 0.0 **** 0.06
27688 H 128.72320991677253 17.739729041051305 26.51794606645805 H 0.0 **** 0.06
27689 H 127.79166373993752 16.79681605243354 27.70762704474228 H 0.0 **** 0.06
27690 H 129.56383408558014 16.636969816074725 27.635098269699625 H 0.0 **** 0.06
27691 C 9.14201113110957 16.9762188312383 80.19323117454005 C 0.0 **** -0.24
27692 H 8.653556084048091 16.036925157169442 80.44949090572868 H 0.0 **** 0.06
27693 H 10.083339962918004 16.768607228763045 79.6830933726614 H 0.0 **** 0.06
27694 H 9.339732881372285 17.542499838616806 81.10312455958592 H 0.0 **** 0.06
27695 H 8.493574726171431 17.556292185032966 79.53702909477016 H 0.0 **** 0.06
27696 C 97.58813314790568 39.56311905346623 91.4192938174748 C 0.0 **** -0.24
27697 H 96.49933492249612 39.525305989269796 91.37730947678578 H 0.0 **** 0.06
27698 H 97.99444548477584 39.4091952972359 90.419646468232 H 0.0 **** 0.06
27699 H 97.9522733028997 38.779620442556954 92.0844614458078 H 0.0 **** 0.06
27700 H 97.90403078237824 40.53625171638998 91.79499257799031 H 0.0 **** 0.06
27701 C 40.33796677240531 67.95030987979479 9.471309355633764 C 0.0 **** -0.24
27702 H 40.40151014983613 68.90074785359057 10.001127209073957 H 0.0 **** 0.06
27703 H 39.74184195943866 68.07754321945029 8.567859339683139 H 0.0 **** 0.06
27704 H 39.868658490237976 67.20607839031588 10.115019155395828 H 0.0 **** 0.06
27705 H 41.340465564329634 67.61748264836237 9.200727927433832 H 0.0 **** 0.06
27706 C 79.70686201489976 68.56428899934441 11.360563238739616 C 0.0 **** -0.24
27707 H 79.61735353046191 67.79773085138477 10.591206447341662 H 0.0 **** 0.06
27708 H 80.74759318305274 68.88074101743511 11.439935056310347 H 0.0 **** 0.06
27709 H 79.3773455903782 68.15853788123282 12.317356865511499 H 0.0 **** 0.06
27710 H 79.08585225750501 69.41910400417535 11.095606300188507 H 0.0 **** 0.06
27711 C 19.30193283635738 106.62936590797449 79.22809592339463 C 0.0 **** -0.24
27712 H 19.6464671263288 107.294091311204 78.43642598824016 H 0.0 **** 0.06
27713 H 20.10776538328244 105.95169136080898 79.50911932494095 H 0.0 **** 0.06
27714 H 18.448227469421703 106.05212815503052 78.87217484730989 H 0.0 **** 0.06
27715 H 19.004688525721498 107.22018041583743 80.09414734751184 H 0.0 **** 0.06
27716 C 18.24981052312083 105.30142410342108 31.598582697331253 C 0.0 **** -0.24
27717 H 17.70807071986937 106.24621830760645 31.643011952097197 H 0.0 **** 0.06
27718 H 17.558263689135998 104.4982317735909 31.344328661351867 H 0.0 **** 0.06
27719 H 18.704812398579975 105.09770539600919 32.56750581507319 H 0.0 **** 0.06
27720 H 19.028118611752973 105.36477989914346 30.83737137584086 H 0.0 **** 0.06
27721 C 90.52457974633836 128.7053992196341 59.631190351837006 C 0.0 **** -0.24
27722 H 89.94875110400562 128.88126648145555 58.72275921705713 H 0.0 **** 0.06
27723 H 91.57364896184026 128.9375526305873 59.447115239354844 H 0.0 **** 0.06
27724 H 90.42874961536586 127.66085914991191 59.92567573018876 H 0.0 **** 0.06
27725 H 90.14552306958183 129.34467293062158 60.430050372553865 H 0.0 **** 0.06
27726 C 38.68222334760401 77.53849901126199 127.10407216757508 C 0.0 **** -0.24
27727 H 39.693405631269286 77.77170693399336 126.77001598544757 H 0.0 **** 0.06
27728 H 38.691699277914665 77.34134083665316 128.17702744144174 H 0.0 **** 0.06
27729 H 38.318611092999674 76.65812894583956 126.57487021954549 H 0.0 **** 0.06
27730 H 38.02749724058614 78.38456780957478 126.895624648877 H 0.0 **** 0.06
27731 C 23.148332479026863 107.41520807869259 68.20037275557598 C 0.0 **** -0.24
27732 H 23.637656558958383 107.01170162620195 67.31406550904876 H 0.0 **** 0.06
27733 H 23.161505783013638 108.5050445051613 68.15780322608566 H 0.0 **** 0.06
27734 H 23.67748348795908 107.07982673774748 69.09164968783404 H 0.0 **** 0.06
27735 H 22.116847575106192 107.0650424412024 68.23737240295424 H 0.0 **** 0.06
27736 C 34.69386976030383 15.554506786354239 136.00564350703084 C 0.0 **** -0.24
27737 H 35.69531546125768 15.421104856324177 136.4154428715684 H 0.0 **** 0.06
27738 H 34.397449962224115 16.59961343032566 136.1017763624451 H 0.0 **** 0.06
27739 H 33.99078691384918 14.924960905007083 136.5508109537493 H 0.0 **** 0.06
27740 H 34.69259098951111 15.271887872582596 134.9522314113355 H 0.0 **** 0.06
27741 C 76.55846048592826 55.59509576999628 122.38938938766819 C 0.0 **** -0.24
27742 H 76.95060491034741 55.77598727760122 121.38848125770733 H 0.0 **** 0.06
27743 H 76.96128394195233 54.65783270788995 122.77351994620233 H 0.0 **** 0.06
27744 H 75.47055162818299 55.53274263320756 122.34702764090565 H 0.0 **** 0.06
27745 H 76.84964228960385 56.41329877389357 123.0469059216777 H 0.0 **** 0.06
27746 C 116.25163621906378 107.84710914167253 21.114654266911145 C 0.0 **** -0.24
27747 H 116.85183666119633 108.7541382009756 21.04210923642063 H 0.0 **** 0.06
27748 H 115.78051056822196 107.80239236736809 22.0967897533705 H 0.0 **** 0.06
27749 H 116.89302644920426 106.97644036058543 20.97926411570728 H 0.0 **** 0.06
27750 H 115.48347180084403 107.85720040183308 20.342841108419748 H 0.0 **** 0.06
27751 C 8.350249667264343 131.95346944205784 125.77001675516925 C 0.0 **** -0.24
27752 H 9.049005889663292 131.41670430753769 126.41170125352394 H 0.0 **** 0.06
27753 H 8.341143577259853 133.00853334184802 126.04676824764499 H 0.0 **** 0.06
27754 H 7.350933461417231 131.53654415456901 125.89360263669636 H 0.0 **** 0.06
27755 H 8.66033873493296 131.8528213779931 124.73006734090919 H 0.0 **** 0.06
27756 C 113.82036470489027 40.87475075785164 15.832988984643919 C 0.0 **** -0.24
27757 H 114.87577045298286 40.66063985680768 16.003539046752252 H 0.0 **** 0.06
27758 H 113.72358797280691 41.610100262343565 15.034688039412458 H 0.0 **** 0.06
27759 H 113.3787366808231 41.26876838786552 16.747605733617263 H 0.0 **** 0.06
27760 H 113.30577335989338 39.95667495541511 15.546617366958088 H 0.0 **** 0.06
27761 C 49.76562948834709 22.54137897797318 24.665521172857893 C 0.0 **** -0.24
27762 H 50.536806145437765 23.182958471376487 25.090589789594105 H 0.0 **** 0.06
27763 H 49.33937186512816 21.9163209069441 25.450726207966227 H 0.0 **** 0.06
27764 H 50.20412748408202 21.907452422491538 23.89461151036795 H 0.0 **** 0.06
27765 H 48.98135402140758 23.157293471828957 24.226360208149572 H 0.0 **** 0.06
27766 C 86.30066431381482 135.97073461865173 27.020310705762483 C 0.0 **** -0.24
27767 H 86.07823461691157 137.03560538479715 26.944789909107044 H 0.0 **** 0.06
27768 H 86.50097067951208 135.71521571721593 28.060880029308464 H 0.0 **** 0.06
27769 H 87.17654283268678 135.7391980431373 26.4127880498053 H 0.0 **** 0.06
27770 H 85.4478210314802 135.39509170930057 26.662114407682907 H 0.0 **** 0.06
27771 C 32.2358709447706 91.49259702426653 61.02462579190187 C 0.0 **** -0.24
27772 H 32.705464973757145 91.3368326310258 60.054277461303315 H 0.0 **** 0.06
27773 H 31.184921516673747 91.74704414749172 60.88337752368068 H 0.0 **** 0.06
27774 H 32.74045519032087 92.30626137066173 61.546596269040066 H 0.0 **** 0.06
27775 H 32.31138857377071 90.57959169742395 61.61670053631421 H 0.0 **** 0.06
27776 C 115.74200610088107 27.389380912842 112.61665770385451 C 0.0 **** -0.24
27777 H 116.05730892502231 28.16030391099548 113.32003949174944 H 0.0 **** 0.06
27778 H 114.82209344681735 27.702535136843153 112.12205559976664 H 0.0 **** 0.06
27779 H 115.56698083599184 26.45673147284981 113.15422565578868 H 0.0 **** 0.06
27780 H 116.52277902306878 27.237751731904922 111.8711254699094 H 0.0 **** 0.06
27781 C 28.619477429093173 86.53055628092227 77.82912668744888 C 0.0 **** -0.24
27782 H 27.808209104447016 85.85941496022468 78.11011435427565 H 0.0 **** 0.06
27783 H 28.298245018851674 87.5633555260332 77.96271000050001 H 0.0 **** 0.06
27784 H 28.883575076316994 86.36379023528653 76.78555469136103 H 0.0 **** 0.06
27785 H 29.48695576588495 86.33445469650252 78.45895328655814 H 0.0 **** 0.06
27786 C 69.24624904469914 83.99674623557607 51.589979442943445 C 0.0 **** -0.24
27787 H 70.04366996216247 83.9076965353113 52.327981549688104 H 0.0 **** 0.06
27788 H 68.37858595951045 84.47200349250134 52.04933164641784 H 0.0 **** 0.06
27789 H 68.97029232481334 83.00507892124685 51.23152737420244 H 0.0 **** 0.06
27790 H 69.5918210121259 84.60238144220382 50.75233270193874 H 0.0 **** 0.06
27791 C 134.1109189515218 24.71570286003663 63.06713127632072 C 0.0 **** -0.24
27792 H 134.1628183190564 25.051201436307622 64.10308119726182 H 0.0 **** 0.06
27793 H 133.51710711641311 25.420823491481684 62.48596913356862 H 0.0 **** 0.06
27794 H 133.64822428443856 23.729949879801296 63.02625659754598 H 0.0 **** 0.06
27795 H 135.11851398281206 24.66092402089899 62.653473625740375 H 0.0 **** 0.06
27796 C 12.003034212841385 60.24081415532743 28.745125136788175 C 0.0 **** -0.24
27797 H 11.766255838226755 61.04520585010175 29.442381989735452 H 0.0 **** 0.06
27798 H 12.111076131133757 60.651472111083706 27.74103148162878 H 0.0 **** 0.06
27799 H 11.200174782143336 59.50463983645653 28.7528774789007 H 0.0 **** 0.06
27800 H 12.937095004355825 59.76451610436362 29.04474107835783 H 0.0 **** 0.06
27801 C 134.05835251659386 134.9642676148596 10.786236804859357 C 0.0 **** -0.24
27802 H 135.1113816343556 135.01141309044206 11.063839120432135 H 0.0 **** 0.06
27803 H 133.44306244014325 135.20263187405104 11.65318640694963 H 0.0 **** 0.06
27804 H 133.8200164199671 133.96003392160202 10.435896038216583 H 0.0 **** 0.06
27805 H 133.8604558633545 135.68193050822669 9.990411496169884 H 0.0 **** 0.06
27806 C 109.95100642660427 109.27502680279801 111.73832166438922 C 0.0 **** -0.24
27807 H 108.9475667195232 109.65636066216521 111.9213222023933 H 0.0 **** 0.06
27808 H 110.29477327304284 108.72058450572113 112.61124556258869 H 0.0 **** 0.06
27809 H 110.62713920997183 110.10929991031824 111.54836915370515 H 0.0 **** 0.06
27810 H 109.93646357950894 108.61506962897101 110.87038322123774 H 0.0 **** 0.06
27811 C 39.41667739752984 72.45240501489708 27.8608789625901 C 0.0 **** -0.24
27812 H 38.79064774315776 72.16814916606643 28.706603823129385 H 0.0 **** 0.06
27813 H 40.353526359104706 71.89608656545037 27.901213815029635 H 0.0 **** 0.06
27814 H 39.62613543733795 73.52062789274501 27.90657607832724 H 0.0 **** 0.06
27815 H 38.89732261317329 72.22207359701811 26.93084020446954 H 0.0 **** 0.06
27816 C 25.496546790164402 40.46338729948195 102.04766946506362 C 0.0 **** -0.24
27817 H 24.599402239655213 41.03854085308063 101.81603578068155 H 0.0 **** 0.06
27818 H 25.40800386678938 40.03829717694475 103.04711859813182 H 0.0 **** 0.06
27819 H 26.3671561481516 41.11788558169218 102.00666456370104 H 0.0 **** 0.06
27820 H 25.611634233238128 39.660363185398296 101.31923536192869 H 0.0 **** 0.06
27821 C 62.24943531653304 79.66702395645365 92.8714679914799 C 0.0 **** -0.24
27822 H 61.65096558261246 78.87602858960457 93.32346397685606 H 0.0 **** 0.06
27823 H 62.61704084023194 79.33501887828407 91.90008088618485 H 0.0 **** 0.06
27824 H 63.094350722213704 79.89748897965471 93.52088921219077 H 0.0 **** 0.06
27825 H 61.636208270057466 80.55854535185766 92.74325248723252 H 0.0 **** 0.06
27826 C 30.229305742551617 81.60946249453616 13.061533997239735 C 0.0 **** -0.24
27827 H 30.933879782914715 82.23305294070259 13.612252129391976 H 0.0 **** 0.06
27828 H 29.942410056284643 80.75613242693763 13.676637042789281 H 0.0 **** 0.06
27829 H 30.697532107765625 81.2561872875765 12.144281777154191 H 0.0 **** 0.06
27830 H 29.342739636419083 82.19399138537207 12.816169846153088 H 0.0 **** 0.06
27831 C 130.31284493189287 126.07867302221706 42.5636910131486 C 0.0 **** -0.24
27832 H 131.36576440216677 125.91168056953614 42.33383621125208 H 0.0 **** 0.06
27833 H 130.16058900995924 127.12737162513633 42.82019338362028 H 0.0 **** 0.06
27834 H 130.0213541553749 125.45254170801502 43.40662857956454 H 0.0 **** 0.06
27835 H 129.70748619054385 125.82463709496028 41.69381309972917 H 0.0 **** 0.06
27836 C 69.64979266442901 128.01551746018401 60.963533910269916 C 0.0 **** -0.24
27837 H 68.87219359272757 128.7610254202114 61.12678090180833 H 0.0 **** 0.06
27838 H 69.50885870000423 127.55276801443483 59.986921594854465 H 0.0 **** 0.06
27839 H 69.59062547544613 127.25220109467114 61.73958316499704 H 0.0 **** 0.06
27840 H 70.62673387603559 128.49671228516058 61.00071503757384 H 0.0 **** 0.06
27841 C 128.40661406998976 76.73879332880045 136.52707540872967 C 0.0 **** -0.24
27842 H 128.26603172175163 76.9578451666917 137.5859450876353 H 0.0 **** 0.06
27843 H 127.63243944144011 76.04630520542818 136.19420459462714 H 0.0 **** 0.06
27844 H 129.38730605940538 76.28757560205923 136.37626146155458 H 0.0 **** 0.06
27845 H 128.33986212678576 77.6626378419993 135.9527135515232 H 0.0 **** 0.06
27846 C 0.979412932047012 64.246279123503 34.78105825751669 C 0.0 **** -0.24
27847 H 0.7404916426768864 63.183516719976325 34.80907106315446 H 0.0 **** 0.06
27848 H 2.0528555140602975 64.3726167460869 34.639761071258256 H 0.0 **** 0.06
27849 H 0.6784658230397724 64.71140368304083 35.71958850591868 H 0.0 **** 0.06
27850 H 0.44608240884014094 64.71675565606327 33.95430829355444 H 0.0 **** 0.06
27851 C 96.25777511276613 74.57260564745184 128.68339367736192 C 0.0 **** -0.24
27852 H 97.09214052679556 74.53357276777251 127.98357740079067 H 0.0 **** 0.06
27853 H 95.33162041113349 74.74631203163943 128.1355765366173 H 0.0 **** 0.06
27854 H 96.41726538212077 75.3822096705577 129.3950967122265 H 0.0 **** 0.06
27855 H 96.19038510372545 73.62617482766422 129.21984064525904 H 0.0 **** 0.06
27856 C 60.78410704585224 88.85866398096113 38.150770261648404 C 0.0 **** -0.24
27857 H 61.34121876464144 89.72606794544964 38.50405333857873 H 0.0 **** 0.06
27858 H 60.31783901567775 88.35728255601327 38.998734199603575 H 0.0 **** 0.06
27859 H 61.464819100171894 88.16937408167146 37.64970972356065 H 0.0 **** 0.06
27860 H 60.01427972594752 89.18194350710633 37.45069578864201 H 0.0 **** 0.06
27861 C 17.054786086993033 37.67692135267641 34.233402295491544 C 0.0 **** -0.24
27862 H 17.536235497019746 38.12407970106916 33.36313223063769 H 0.0 **** 0.06
27863 H 16.135093133860536 38.21815214915029 34.458320540112 H 0.0 **** 0.06
27864 H 17.72759902631455 37.73120472110443 35.08877127337624 H 0.0 **** 0.06
27865 H 16.820221160690984 36.633760873292005 34.021202914009734 H 0.0 **** 0.06
27866 C 41.89563827597647 123.80590660226898 95.01273230800821 C 0.0 **** -0.24
27867 H 41.18213089782972 123.12449960477608 95.47661570911689 H 0.0 **** 0.06
27868 H 42.65836566848742 123.23131631103729 94.48712695527145 H 0.0 **** 0.06
27869 H 42.36698502608965 124.41834936176298 95.78237783624179 H 0.0 **** 0.06
27870 H 41.37457350404509 124.45030890665129 94.30462621506332 H 0.0 **** 0.06
27871 C 89.18909521820666 65.05236982731107 104.17761422624767 C 0.0 **** -0.24
27872 H 89.34057560942773 64.9715042949147 103.10165908073725 H 0.0 **** 0.06
27873 H 90.07592116145003 64.68853245760033 104.69764425490959 H 0.0 **** 0.06
27874 H 88.32599250215512 64.45357274507575 104.46848158082747 H 0.0 **** 0.06
27875 H 89.01351195373809 66.09451623419575 104.44282622739235 H 0.0 **** 0.06
27876 C 23.17597075944795 54.41902435590285 69.8797355289419 C 0.0 **** -0.24
27877 H 23.046993077677854 54.71661459275134 70.92003108228084 H 0.0 **** 0.06
27878 H 24.22947680031112 54.21168957027898 69.69025887854087 H 0.0 **** 0.06
27879 H 22.841451659416805 55.225735659029084 69.22724957363172 H 0.0 **** 0.06
27880 H 22.5871426887866 53.523705568090634 69.68234557229118 H 0.0 **** 0.06
27881 C 103.43030160236572 107.67841904205662 2.584047667841844 C 0.0 **** -0.24
27882 H 102.81358425946235 108.48692850149013 2.9778601635754285 H 0.0 **** 0.06
27883 H 104.01754272936387 107.24350238212509 3.393137554087332 H 0.0 **** 0.06
27884 H 104.10042456061029 108.07225804666285 1.8195405414643062 H 0.0 **** 0.06
27885 H 102.78978232763623 106.91264944735353 2.1474471517701943 H 0.0 **** 0.06
27886 C 120.79469322460493 103.12224771171438 40.72294875369289 C 0.0 **** -0.24
27887 H 120.84258984957624 103.73122774186615 39.82020056169068 H 0.0 **** 0.06
27888 H 120.09806266223833 103.57440368837086 41.42992892438747 H 0.0 **** 0.06
27889 H 121.7853310155395 103.0635910184721 41.17447643631732 H 0.0 **** 0.06
27890 H 120.45303955954927 102.11946254703842 40.466270448175464 H 0.0 **** 0.06
27891 C 37.368924499732515 92.02163457485673 136.65639630322607 C 0.0 **** -0.24
27892 H 38.29703745326441 92.29865123106993 136.15749437895028 H 0.0 **** 0.06
27893 H 36.52135359933038 92.38204724614326 136.07328195252808 H 0.0 **** 0.06
27894 H 37.34367632059798 92.46980759255865 137.6499633940171 H 0.0 **** 0.06
27895 H 37.31466121446428 90.93673165952163 136.7455153959326 H 0.0 **** 0.06
27896 C 53.60744813648526 76.58694965811247 17.38699265696178 C 0.0 **** -0.24
27897 H 53.10251382751608 76.66305116867727 18.35062901117199 H 0.0 **** 0.06
27898 H 54.47279715855828 77.25096067033894 17.377850051588013 H 0.0 **** 0.06
27899 H 52.9187127661055 76.87632106501451 16.592875619837685 H 0.0 **** 0.06
27900 H 53.93460613320582 75.56014271612119 17.228957441806557 H 0.0 **** 0.06
27901 C 107.00684736750696 3.373287209022763 26.91331800671489 C 0.0 **** -0.24
27902 H 107.53361901454029 4.287153361639916 26.639585794305304 H 0.0 **** 0.06
27903 H 106.30800505469371 3.5854421907004728 27.723026466504848 H 0.0 **** 0.06
27904 H 107.72681174074684 2.623942603077186 27.2409610801553 H 0.0 **** 0.06
27905 H 106.45920813813035 2.997281958514712 26.048480195164615 H 0.0 **** 0.06
27906 C 132.48438230533299 58.48674009838251 90.92596591850321 C 0.0 **** -0.24
27907 H 132.0504967112354 57.49269899978998 91.02955453355023 H 0.0 **** 0.06
27908 H 133.34671670294387 58.57788268546858 91.58672949003378 H 0.0 **** 0.06
27909 H 131.74097709154762 59.237731097272615 91.19446787144236 H 0.0 **** 0.06
27910 H 132.7989795108222 58.64059571846829 89.89338752270245 H 0.0 **** 0.06
27911 C 40.17876695919264 129.98866522369914 56.12346211349478 C 0.0 **** -0.24
27912 H 40.05608800879264 128.91247564253547 55.99961162223849 H 0.0 **** 0.06
27913 H 40.23692494376937 130.46177935066225 55.14378937148547 H 0.0 **** 0.06
27914 H 41.09545137135575 130.1876054110187 56.67922967545388 H 0.0 **** 0.06
27915 H 39.32739883454309 130.38976146989904 56.672678049457915 H 0.0 **** 0.06
27916 C 92.23188624805879 137.03242515342765 41.40430378805854 C 0.0 **** -0.24
27917 H 91.62354549421798 136.76750566287876 40.538736161651684 H 0.0 **** 0.06
27918 H 92.89868809670311 137.85358949450938 41.14102354124407 H 0.0 **** 0.06
27919 H 92.82153211135568 136.16919765075636 41.71071369784954 H 0.0 **** 0.06
27920 H 91.5821416340921 137.3392703892863 42.22423184767629 H 0.0 **** 0.06
27921 C 117.18777288044234 23.573011672638827 41.80279803115873 C 0.0 **** -0.24
27922 H 118.04878613833083 24.182955610497913 41.52879503754707 H 0.0 **** 0.06
27923 H 116.63870598472599 23.295085252156042 40.90314336942488 H 0.0 **** 0.06
27924 H 116.53643122760016 24.14316392202454 42.465719261195034 H 0.0 **** 0.06
27925 H 117.52879872129958 22.672657511167316 42.31374696904217 H 0.0 **** 0.06
27926 C 91.71833604040272 3.6333252241325624 123.46689118294265 C 0.0 **** -0.24
27927 H 91.55854914415164 2.562205822154567 123.34983835953636 H 0.0 **** 0.06
27928 H 92.77737157947018 3.825942236044966 123.64105638253024 H 0.0 **** 0.06
27929 H 91.13927000738397 3.9969533779474773 124.31610916753341 H 0.0 **** 0.06
27930 H 91.39938202360266 4.149925841694795 122.56127524399683 H 0.0 **** 0.06
27931 C 63.05698767709404 39.763317802572175 136.4257077701286 C 0.0 **** -0.24
27932 H 63.90477918364809 39.558537632169305 137.07949191328635 H 0.0 **** 0.06
27933 H 63.383476088266036 40.384166637505416 135.59104248887607 H 0.0 **** 0.06
27934 H 62.28280387208986 40.28576931544674 136.98676112589587 H 0.0 **** 0.06
27935 H 62.65736042143578 38.822701574871616 136.04491347694164 H 0.0 **** 0.06
27936 C 80.03962460834077 17.351954789898777 130.34837565065249 C 0.0 **** -0.24
27937 H 79.24916223338948 17.08796505651238 129.64632744473988 H 0.0 **** 0.06
27938 H 80.32055078983007 18.39499875257826 130.20414037756098 H 0.0 **** 0.06
27939 H 80.90605636386891 16.71358686774923 130.1766769258732 H 0.0 **** 0.06
27940 H 79.6805536804971 17.20970793073426 131.36771169277273 H 0.0 **** 0.06
27941 C 80.84682248318109 99.31908757949039 71.425061018132 C 0.0 **** -0.24
27942 H 81.30084973910357 100.13601422578031 71.9878249696514 H 0.0 **** 0.06
27943 H 81.63060185597999 98.70152253443933 70.98572014791824 H 0.0 **** 0.06
27944 H 80.21961430414223 99.72849959216465 70.63446082139697 H 0.0 **** 0.06
27945 H 80.2375790787132 98.7125196695317 72.09544741859418 H 0.0 **** 0.06
27946 C 77.04910724063548 125.4742346990547 69.7686167924791 C 0.0 **** -0.24
27947 H 76.76347091343473 126.02042411384707 68.86875727805534 H 0.0 **** 0.06
27948 H 76.18524920915992 125.38782207011849 70.4290797403591 H 0.0 **** 0.06
27949 H 77.84615350328052 126.012128514947 70.2815422660722 H 0.0 **** 0.06
27950 H 77.39912072618979 124.47925499751142 69.49417553858626 H 0.0 **** 0.06
27951 C 62.27984211660248 99.7777126313299 130.29729871425266 C 0.0 **** -0.24
27952 H 63.04756148658112 100.54952787379852 130.3462398399132 H 0.0 **** 0.06
27953 H 61.642488243850266 99.84303223388832 131.17945883556354 H 0.0 **** 0.06
27954 H 62.75458915351294 98.7966278831939 130.26332704327564 H 0.0 **** 0.06
27955 H 61.677721805316025 99.92144574624842 129.40017387265257 H 0.0 **** 0.06
27956 C 95.63855900139698 10.638980917449885 8.0669640889489 C 0.0 **** -0.24
27957 H 94.56121448000769 10.77026328548152 8.166647447159072 H 0.0 **** 0.06
27958 H 96.00228720832034 9.993295246329467 8.866850274761457 H 0.0 **** 0.06
27959 H 96.13052799197445 11.609419213839232 8.130769069907654 H 0.0 **** 0.06
27960 H 95.85965272076712 10.181951641497108 7.101664685847215 H 0.0 **** 0.06
27961 C 3.2909634741783407 131.75687561435737 119.35659756360013 C 0.0 **** -0.24
27962 H 2.6870255695711194 131.2723675098369 118.58996667156953 H 0.0 **** 0.06
27963 H 3.1977340432304118 132.83889317201857 119.26146419100854 H 0.0 **** 0.06
27964 H 4.335300694506145 131.46972422749226 119.23263010872517 H 0.0 **** 0.06
27965 H 2.9431693582201603 131.44727796970312 120.34215000473506 H 0.0 **** 0.06
27966 C 92.32336547244613 19.50458685162019 94.55362465536521 C 0.0 **** -0.24
27967 H 93.26315626747729 19.622065705062226 95.09350617933015 H 0.0 **** 0.06
27968 H 92.52447393647243 19.439719737477674 93.48458879223116 H 0.0 **** 0.06
27969 H 91.68083221492351 20.360855548621117 94.75239053575606 H 0.0 **** 0.06
27970 H 91.82662098719317 18.592675702455168 94.88669385006165 H 0.0 **** 0.06
27971 C 84.09393705963006 104.5956780936281 32.748419818991806 C 0.0 **** -0.24
27972 H 83.06978009756662 104.30432734761722 32.982020617949615 H 0.0 **** 0.06
27973 H 84.74862079201654 103.728872092871 32.848971899160915 H 0.0 **** 0.06
27974 H 84.41564233160506 105.37638925356818 33.438216816681745 H 0.0 **** 0.06
27975 H 84.14163781893546 104.97056079591127 31.726574132516873 H 0.0 **** 0.06
27976 C 117.48711521713469 126.97475856085025 28.91790925947342 C 0.0 **** -0.24
27977 H 116.66673813732913 126.4914914107708 29.44826419568585 H 0.0 **** 0.06
27978 H 118.39134569367093 126.92406102293994 29.523451174070658 H 0.0 **** 0.06
27979 H 117.23292301383023 128.01860013536287 28.729906012990824 H 0.0 **** 0.06
27980 H 117.65502203013628 126.46505242974028 27.968581562880786 H 0.0 **** 0.06
27981 C 115.33129468524479 67.81912861333166 37.87873084666069 C 0.0 **** -0.24
27982 H 115.33807677119265 68.78394929929516 37.37195664394966 H 0.0 **** 0.06
27983 H 116.16495568009879 67.21462493393534 37.51935113510558 H 0.0 **** 0.06
27984 H 114.3935039226426 67.30559497460453 37.670042837402036 H 0.0 **** 0.06
27985 H 115.43051352458423 67.97267876425843 38.952950098457165 H 0.0 **** 0.06
27986 C 128.4118539399132 55.04113977477529 41.50499494379325 C 0.0 **** -0.24
27987 H 128.9641178693599 55.978414558668604 41.44346808177815 H 0.0 **** 0.06
27988 H 128.5379052842621 54.484038948802436 40.57584594709573 H 0.0 **** 0.06
27989 H 127.35416758378065 55.25203558232407 41.662936683730976 H 0.0 **** 0.06
27990 H 128.7935311827909 54.44924541819974 42.337773234345946 H 0.0 **** 0.06
27991 C 51.51928088243105 104.47025228901748 70.78486269793078 C 0.0 **** -0.24
27992 H 51.05701148822811 105.43194736670085 71.00747816651247 H 0.0 **** 0.06
27993 H 51.462084461052584 103.82853327158256 71.66473222624103 H 0.0 **** 0.06
27994 H 52.5639942380474 104.62318223108554 70.51487106651825 H 0.0 **** 0.06
27995 H 50.9944158824179 103.99789514999964 69.9552938545198 H 0.0 **** 0.06
27996 C 22.65629003807402 44.69678723990037 19.541666394514692 C 0.0 **** -0.24
27997 H 21.792731935697063 44.2282995419496 19.070405632992674 H 0.0 **** 0.06
27998 H 23.33030318663006 45.07340224583411 18.772057084566285 H 0.0 **** 0.06
27999 H 23.17844957524312 43.96334420917226 20.155940593801517 H 0.0 **** 0.06
28000 H 22.323032152108 45.52440525970428 20.168796933018655 H 0.0 **** 0.06
28001 C 75.98594547440139 48.574027252672295 12.54003183725763 C 0.0 **** -0.24
28002 H 77.0088129266533 48.94774949885871 12.530554338543851 H 0.0 **** 0.06
28003 H 75.93366732190701 47.675106856015816 13.154977539197006 H 0.0 **** 0.06
28004 H 75.6756858380106 48.33603558855722 11.522792943031618 H 0.0 **** 0.06
28005 H 75.32425703501758 49.33525277884175 12.952346198041624 H 0.0 **** 0.06
28006 C 107.90267264787506 45.55530835416123 128.15238269508885 C 0.0 **** -0.24
28007 H 108.90237978249182 45.197525788606704 127.90518770655368 H 0.0 **** 0.06
28008 H 107.97949586055185 46.397681936019566 128.84041615408793 H 0.0 **** 0.06
28009 H 107.33532600080757 44.75258349421064 128.62214070558076 H 0.0 **** 0.06
28010 H 107.39570556486697 45.87448460593349 127.2417697372294 H 0.0 **** 0.06
28011 C 48.50598165984921 84.87217182480795 47.35685542260563 C 0.0 **** -0.24
28012 H 49.02134344666598 85.72303070972056 46.91256678315898 H 0.0 **** 0.06
28013 H 49.223513537024246 84.25431411621568 47.89732646450756 H 0.0 **** 0.06
28014 H 48.03706361848239 84.28125655803262 46.57015594169228 H 0.0 **** 0.06
28015 H 47.74200603722424 85.23008591526317 48.047372501063435 H 0.0 **** 0.06
28016 C 12.53012987308195 126.0615101890358 114.80927120783909 C 0.0 **** -0.24
28017 H 13.598442593380348 125.86204004068219 114.7299136635165 H 0.0 **** 0.06
28018 H 12.02361380635896 125.1787766587883 115.19967875754821 H 0.0 **** 0.06
28019 H 12.131620309625568 126.30259904938424 113.82339728730722 H 0.0 **** 0.06
28020 H 12.366681604788987 126.90236093037711 115.48271513107377 H 0.0 **** 0.06
28021 C 120.58943450215457 33.898141351461845 127.00112124450436 C 0.0 **** -0.24
28022 H 119.5275567762003 34.12287117204954 126.90678560428282 H 0.0 **** 0.06
28023 H 120.97503993380906 33.55649229302861 126.03997636189544 H 0.0 **** 0.06
28024 H 120.73034152657402 33.11723208833979 127.74850267461173 H 0.0 **** 0.06
28025 H 121.1249654078365 34.79670101863954 127.30988215827662 H 0.0 **** 0.06
28026 C 123.97630246262582 122.85278352586711 50.364735949793754 C 0.0 **** -0.24
28027 H 123.42447495014216 122.78798822849765 49.42721421286984 H 0.0 **** 0.06
28028 H 123.76608156967984 121.9705852606238 50.970507788165776 H 0.0 **** 0.06
28029 H 123.66942858039488 123.74657086680001 50.906522439065796 H 0.0 **** 0.06
28030 H 125.04444413003478 122.90375497266405 50.15406952471115 H 0.0 **** 0.06
28031 C 86.59044749711134 99.34080646289705 12.42122514067313 C 0.0 **** -0.24
28032 H 86.07192592044942 98.44940545394937 12.772156200291363 H 0.0 **** 0.06
28033 H 86.0707233204023 99.74461311730484 11.551929412853099 H 0.0 **** 0.06
28034 H 87.61249895982839 99.0827610254952 12.146502818529314 H 0.0 **** 0.06
28035 H 86.6049996868225 100.08820129237562 13.214785021933267 H 0.0 **** 0.06
28036 C 132.2150142493316 18.7192481405242 6.54903758212572 C 0.0 **** -0.24
28037 H 132.2895962359343 19.606181322132414 5.920166290472139 H 0.0 **** 0.06
28038 H 131.18086352193677 18.372867569434618 6.565827764899467 H 0.0 **** 0.06
28039 H 132.53312617144138 18.963153886986277 7.561921970888875 H 0.0 **** 0.06
28040 H 132.854828073889 17.933673268956397 6.145986106832481 H 0.0 **** 0.06
28041 C 97.81287450720143 35.62976833206337 49.64331980422884 C 0.0 **** -0.24
28042 H 97.74137706817308 34.97598155520275 50.511832884768694 H 0.0 **** 0.06
28043 H 98.70448883644451 35.37486492441115 49.0694232469757 H 0.0 **** 0.06
28044 H 97.87737682423727 36.66636893628954 49.9742166227544 H 0.0 **** 0.06
28045 H 96.92960043296273 35.50174739814986 49.01822895086008 H 0.0 **** 0.06
28046 C 120.16899064359706 12.488159847160112 75.02666884353624 C 0.0 **** -0.24
28047 H 119.22312193004389 12.387523956459564 74.49458722670329 H 0.0 **** 0.06
28048 H 120.0178277256525 13.085996308652874 75.92513774767866 H 0.0 **** 0.06
28049 H 120.8981360039275 12.977847800333137 74.38124974734205 H 0.0 **** 0.06
28050 H 120.5353399084449 11.499329195942952 75.30433459089875 H 0.0 **** 0.06
28051 C 116.68759468541228 87.24102744805771 76.01762391912266 C 0.0 **** -0.24
28052 H 117.48430270516445 86.86944882760571 75.37274738155513 H 0.0 **** 0.06
28053 H 117.01671003157267 88.15758707566846 76.50924236038045 H 0.0 **** 0.06
28054 H 116.44859487554882 86.49057019097077 76.77010779639993 H 0.0 **** 0.06
28055 H 115.8026086524909 87.44927897963399 75.41668876125662 H 0.0 **** 0.06
28056 C 21.337499807097913 65.7528528295677 86.46067142142715 C 0.0 **** -0.24
28057 H 20.52913243861616 65.04566983905602 86.64941073282762 H 0.0 **** 0.06
28058 H 21.193252360304484 66.21847910374561 85.48576942314043 H 0.0 **** 0.06
28059 H 22.290951443520555 65.22483540660727 86.47447859624583 H 0.0 **** 0.06
28060 H 21.335268133124742 66.51962473523275 87.23507693864889 H 0.0 **** 0.06
28061 C 136.63231083208808 43.693372759827774 33.820574090114974 C 0.0 **** -0.24
28062 H 137.33298515447802 43.20158254175172 34.495538496597135 H 0.0 **** 0.06
28063 H 136.0091394355546 44.3868728132698 34.38611559657019 H 0.0 **** 0.06
28064 H 136.00204311645228 42.94383494531202 33.342807728666486 H 0.0 **** 0.06
28065 H 137.18656940022746 44.24148031991408 33.058665561941496 H 0.0 **** 0.06
28066 C 2.4149425968681157 110.12757125809165 135.05325457824415 C 0.0 **** -0.24
28067 H 1.9381606491855337 109.79295301117892 135.974340158355 H 0.0 **** 0.06
28068 H 1.7518578586534659 110.8180073900026 134.53210907678505 H 0.0 **** 0.06
28069 H 2.6173480452675335 109.26648892003585 134.41612169119995 H 0.0 **** 0.06
28070 H 3.350986072114779 110.6311876263459 135.29157612254878 H 0.0 **** 0.06
28071 C 85.9589096985298 2.1406887047980945 16.644004073420376 C 0.0 **** -0.24
28072 H 85.31071761367267 2.697317824544683 15.966994386175514 H 0.0 **** 0.06
28073 H 85.74315395379455 1.075344185209815 16.559018167375314 H 0.0 **** 0.06
28074 H 85.77999640076456 2.46834087562263 17.66819212211837 H 0.0 **** 0.06
28075 H 87.00077589007333 2.322963136536373 16.381074576809908 H 0.0 **** 0.06
28076 C 83.69732201522868 10.228194835696087 60.61433987625685 C 0.0 **** -0.24
28077 H 83.95690451372501 10.737524274163633 59.685557569555186 H 0.0 **** 0.06
28078 H 83.28169628366906 10.949258474651714 61.31880320446433 H 0.0 **** 0.06
28079 H 84.5913317022917 9.775001769307494 61.04146367342706 H 0.0 **** 0.06
28080 H 82.95898296293336 9.452315063934975 60.4083540679663 H 0.0 **** 0.06
28081 C 85.03068386059518 58.25804728793253 126.10114281661788 C 0.0 **** -0.24
28082 H 83.95737190630894 58.34622037634429 125.93101625915423 H 0.0 **** 0.06
28083 H 85.48709246355263 57.72329533612523 125.26827332413546 H 0.0 **** 0.06
28084 H 85.20771087417825 57.708932857023996 127.02631300239057 H 0.0 **** 0.06
28085 H 85.46958091333508 59.25274710128423 126.17873611001141 H 0.0 **** 0.06
28086 C 1.0199198493819495 17.716225874831828 5.0356780896513555 C 0.0 **** -0.24
28087 H 0.3507144417382051 16.90442924717331 5.318899507320623 H 0.0 **** 0.06
28088 H 1.560972783887678 17.44237073715412 4.129964478654728 H 0.0 **** 0.06
28089 H 1.7306969335690496 17.8996540103852 5.842629269343007 H 0.0 **** 0.06
28090 H 0.4380190567352429 18.61941771542199 4.852459584561245 H 0.0 **** 0.06
28091 C 87.1520904299001 116.32124735014901 122.46966577717383 C 0.0 **** -0.24
28092 H 87.07346324088593 116.920012823968 123.3771473141992 H 0.0 **** 0.06
28093 H 87.80629384993773 116.82463467958794 121.75834650355034 H 0.0 **** 0.06
28094 H 86.16261325729782 116.19760226731032 122.03023677261366 H 0.0 **** 0.06
28095 H 87.56434346871085 115.34266633107359 122.71563057452848 H 0.0 **** 0.06
28096 C 70.081228434031 41.143504632054004 42.18950253040663 C 0.0 **** -0.24
28097 H 69.4771026086836 41.42372321120746 41.3258691273611 H 0.0 **** 0.06
28098 H 69.44956471781535 40.65125354984251 42.92937408152304 H 0.0 **** 0.06
28099 H 70.52551737018018 42.0367983545772 42.626695456110184 H 0.0 **** 0.06
28100 H 70.8707574995405 40.46183897814802 41.874084037712635 H 0.0 **** 0.06
28101 C 38.41692931636862 125.97630244232585 16.109512434565232 C 0.0 **** -0.24
28102 H 37.70262466580499 126.54137976091222 15.511284618073162 H 0.0 **** 0.06
28103 H 39.423266500710554 126.34997093802056 15.923261692348873 H 0.0 **** 0.06
28104 H 38.36451890168843 124.92182278918305 15.83660600364857 H 0.0 **** 0.06
28105 H 38.17626066548854 126.09054589855555 17.166070552842136 H 0.0 **** 0.06
28106 C 9.395657725661351 83.40409639377498 95.7572367405989 C 0.0 **** -0.24
28107 H 9.205409230753133 84.25277401198785 95.10016454020382 H 0.0 **** 0.06
28108 H 8.694134022181146 83.4268600861713 96.59119559534092 H 0.0 **** 0.06
28109 H 10.41579753981074 83.46173696569046 96.13848789691419 H 0.0 **** 0.06
28110 H 9.267708242652333 82.47652735251786 95.1998314702699 H 0.0 **** 0.06
28111 C 40.04271617713746 11.411042560737116 41.09941661390985 C 0.0 **** -0.24
28112 H 39.292740935768606 10.62033182014008 41.12820451086341 H 0.0 **** 0.06
28113 H 40.26143111962631 11.740119534766222 42.11502340640709 H 0.0 **** 0.06
28114 H 39.66343140436575 12.250787584162566 40.51802142145934 H 0.0 **** 0.06
28115 H 40.95332176426606 11.030105482577483 40.636524087084624 H 0.0 **** 0.06
28116 C 11.397397886442036 101.32602992611288 10.484820691143 C 0.0 **** -0.24
28117 H 10.849233496562192 100.79420185735557 11.262253486567388 H 0.0 **** 0.06
28118 H 10.840364578776118 102.21584077064367 10.190238528435174 H 0.0 **** 0.06
28119 H 11.526493864522422 100.67472966896759 9.621141812781147 H 0.0 **** 0.06
28120 H 12.37546474651657 101.62024233643768 10.86680548451102 H 0.0 **** 0.06
28121 C 99.22404066510194 15.638163312430365 66.4379405509068 C 0.0 **** -0.24
28122 H 98.9126751191861 15.588228744093087 65.39476123876543 H 0.0 **** 0.06
28123 H 100.2152362933519 16.088309607913295 66.4990194737799 H 0.0 **** 0.06
28124 H 99.25557248262021 14.63172569527321 66.85575408175447 H 0.0 **** 0.06
28125 H 98.51444718208043 16.243666932892587 67.00069401222012 H 0.0 **** 0.06
28126 C 111.79231602553921 80.35367533440579 19.660000067129573 C 0.0 **** -0.24
28127 H 111.91566663980842 81.4039402985478 19.39636930708967 H 0.0 **** 0.06
28128 H 110.81487997295557 80.2071568675463 20.122232990362477 H 0.0 **** 0.06
28129 H 112.5733391994718 80.06195383881249 20.362460353080195 H 0.0 **** 0.06
28130 H 111.86479314555868 79.74228317901074 18.761230517835713 H 0.0 **** 0.06
28131 C 6.017506310947486 101.32161965731575 81.45432457226664 C 0.0 **** -0.24
28132 H 4.990624187830651 100.95685393496731 81.45465450166265 H 0.0 **** 0.06
28133 H 6.136449785829697 102.07307962255538 80.67351893027688 H 0.0 **** 0.06
28134 H 6.698909202054857 100.49132085408476 81.26795109001591 H 0.0 **** 0.06
28135 H 6.244755738755085 101.76682561326388 82.42398920954128 H 0.0 **** 0.06
28136 C 48.83405382140319 3.5717075990024227 3.4838562794856784 C 0.0 **** -0.24
28137 H 49.785454195210136 4.059759953513378 3.695920657277611 H 0.0 **** 0.06
28138 H 49.01254306781732 2.527208988054838 3.226156152499641 H 0.0 **** 0.06
28139 H 48.346716705220416 4.074136656959638 2.649089499531044 H 0.0 **** 0.06
28140 H 48.19417809703633 3.6250362901361655 4.364859790330257 H 0.0 **** 0.06
28141 C 2.500534936958843 121.41885007295404 112.75798564204487 C 0.0 **** -0.24
28142 H 1.8639415655376297 120.94512983789551 112.009879943079 H 0.0 **** 0.06
28143 H 1.878188706072251 121.85716649955279 113.53872886637654 H 0.0 **** 0.06
28144 H 3.0960566322720524 122.1999031568262 112.28630035549762 H 0.0 **** 0.06
28145 H 3.162173707701868 120.6723415461203 113.1967226837696 H 0.0 **** 0.06
28146 C 44.89236860237588 104.49739123198745 129.56244446153167 C 0.0 **** -0.24
28147 H 43.99515818451056 104.34803984611402 128.96123591102926 H 0.0 **** 0.06
28148 H 45.37504380970424 105.42868622196504 129.2679324962459 H 0.0 **** 0.06
28149 H 45.57780109910021 103.66548187478507 129.40360765801182 H 0.0 **** 0.06
28150 H 44.61870945169292 104.54693512210729 130.6165607514675 H 0.0 **** 0.06
28151 C 9.406886152664967 8.288003843484066 44.8421474836737 C 0.0 **** -0.24
28152 H 9.774385338944853 7.899593691750013 45.79173367889884 H 0.0 **** 0.06
28153 H 10.125527433599459 8.061208785154811 44.054924675654206 H 0.0 **** 0.06
28154 H 9.277682467466065 9.36823829674934 44.917081101796015 H 0.0 **** 0.06
28155 H 8.449799241956413 7.823184010684248 44.60581673659553 H 0.0 **** 0.06
28156 C 131.3041150960846 118.82726222882738 29.87604967480428 C 0.0 **** -0.24
28157 H 132.2623074231705 118.74123096079117 30.388563237349445 H 0.0 **** 0.06
28158 H 131.40949916362524 119.49451836390773 29.019526705573156 H 0.0 **** 0.06
28159 H 130.55933443269674 119.23045672201266 30.56191847157376 H 0.0 **** 0.06
28160 H 130.9867369780899 117.84203006553616 29.5323654554268 H 0.0 **** 0.06
28161 C 1.5478673878852192 25.44774769570114 85.94685826861246 C 0.0 **** -0.24
28162 H 0.5757957338582003 25.926781350172348 85.8293528479719 H 0.0 **** 0.06
28163 H 1.5664488205782732 24.520454484602112 85.37364354020292 H 0.0 **** 0.06
28164 H 1.7199198992320248 25.228596449953272 87.0001387046446 H 0.0 **** 0.06
28165 H 2.328148159554331 26.115727402304515 85.58314127045344 H 0.0 **** 0.06
28166 C 93.90440063422784 99.28376433383357 19.590952428897026 C 0.0 **** -0.24
28167 H 94.32252515661361 98.48409438563064 18.979269556847726 H 0.0 **** 0.06
28168 H 93.33136280099677 98.85070495801125 20.411615782979197 H 0.0 **** 0.06
28169 H 93.25067228741136 99.90530768121604 18.97905196510777 H 0.0 **** 0.06
28170 H 94.7133139900235 99.89274937381026 19.993585548931975 H 0.0 **** 0.06
28171 C 83.24073106265155 41.231192555841844 42.87700466996631 C 0.0 **** -0.24
28172 H 83.66562206042558 40.26427455418505 42.610987390338266 H 0.0 **** 0.06
28173 H 83.03226955474446 41.25424890626826 43.9467220507011 H 0.0 **** 0.06
28174 H 82.3157184848594 41.387350789276454 42.32197548300513 H 0.0 **** 0.06
28175 H 83.95049040679956 42.02093528769444 42.62765707454186 H 0.0 **** 0.06
28176 C 27.848421313400195 94.30692252631053 69.69078782394001 C 0.0 **** -0.24
28177 H 27.033604516740937 94.56355323282827 70.36842147906104 H 0.0 **** 0.06
28178 H 28.372033771324354 95.2151084702264 69.39177886119344 H 0.0 **** 0.06
28179 H 27.44421260884991 93.81242543301107 68.8080228680987 H 0.0 **** 0.06
28180 H 28.543591086189423 93.63660200771338 70.1966430094403 H 0.0 **** 0.06
28181 C 12.58264204092066 100.8696133333733 16.00058630430675 C 0.0 **** -0.24
28182 H 13.351152340936693 100.15469014103326 16.29460979477284 H 0.0 **** 0.06
28183 H 11.941615565705604 101.08544442155286 16.85556822186726 H 0.0 **** 0.06
28184 H 11.982991837382656 100.4474906873571 15.194231443771145 H 0.0 **** 0.06
28185 H 13.054914236208276 101.7900793007122 15.658590106466903 H 0.0 **** 0.06
28186 C 84.54730131105649 94.45228465095549 63.00465961155852 C 0.0 **** -0.24
28187 H 84.36864398546402 93.39270238331645 63.18399722438183 H 0.0 **** 0.06
28188 H 83.60837853808368 94.94128819090658 62.74744458754765 H 0.0 **** 0.06
28189 H 85.25456125706424 94.56643564291045 62.182764233734005 H 0.0 **** 0.06
28190 H 84.95991414577202 94.90800798944872 63.904930106437504 H 0.0 **** 0.06
28191 C 110.15281596516337 117.6568759782657 114.04510789962407 C 0.0 **** -0.24
28192 H 111.23474215227276 117.54704162036609 113.96621407184153 H 0.0 **** 0.06
28193 H 109.69761259403427 116.67649474981985 114.19316093221047 H 0.0 **** 0.06
28194 H 109.76473917971657 118.10353605626943 113.12989468532572 H 0.0 **** 0.06
28195 H 109.91325233497292 118.29983411084518 114.89250403135878 H 0.0 **** 0.06
28196 C 109.70001403070094 80.91452827144832 2.6853687473349055 C 0.0 **** -0.24
28197 H 110.10944726983607 81.91394023212399 2.539032809118538 H 0.0 **** 0.06
28198 H 109.48438219496722 80.76138746031671 3.7428926830781677 H 0.0 **** 0.06
28199 H 110.42647051353615 80.1734530705804 2.351775293682209 H 0.0 **** 0.06
28200 H 108.78259598635267 80.8092673814815 2.1068090621262456 H 0.0 **** 0.06
28201 C 48.48663220646543 95.90027443713959 59.97610608146596 C 0.0 **** -0.24
28202 H 48.922926427771216 95.11564162062757 59.35642887069315 H 0.0 **** 0.06
28203 H 49.12903237396833 96.78075205950732 59.95239404446221 H 0.0 **** 0.06
28204 H 48.39471384378979 95.54354786190778 61.001293460697866 H 0.0 **** 0.06
28205 H 47.500416911073444 96.15889421402004 59.59062422206597 H 0.0 **** 0.06
28206 C 84.77409060005385 108.41899564177268 57.14826804772322 C 0.0 **** -0.24
28207 H 84.87393440584617 108.26791552663458 58.223054570017496 H 0.0 **** 0.06
28208 H 85.14868141290532 109.40863064588315 56.88494811580138 H 0.0 **** 0.06
28209 H 83.72422321210686 108.34159757498061 56.86653405101785 H 0.0 **** 0.06
28210 H 85.35009658773436 107.6598241281233 56.61985084327932 H 0.0 **** 0.06
28211 C 39.8566684147321 62.20704172407331 65.78022599200352 C 0.0 **** -0.24
28212 H 39.119234218537 62.5326092329131 66.51502442752604 H 0.0 **** 0.06
28213 H 39.550450378939416 62.53859677237432 64.78802801337764 H 0.0 **** 0.06
28214 H 39.927042351528 61.11952166555484 65.7948096193694 H 0.0 **** 0.06
28215 H 40.82684805278984 62.63775847563582 66.02511484096101 H 0.0 **** 0.06
28216 C 36.04569330567762 39.168491138955105 69.49369118539073 C 0.0 **** -0.24
28217 H 36.84626880391117 39.84303242497805 69.1905575948708 H 0.0 **** 0.06
28218 H 35.23212445443836 39.2226374571775 68.76931074004682 H 0.0 **** 0.06
28219 H 35.67708924946176 39.459962382729714 70.47716646373928 H 0.0 **** 0.06
28220 H 36.42740993750533 38.1479914249182 69.5363625771827 H 0.0 **** 0.06
28221 C 135.79552330820803 63.40008192717818 48.89281754120384 C 0.0 **** -0.24
28222 H 134.90187217827122 63.94103179383586 48.58104522481119 H 0.0 **** 0.06
28223 H 136.52682462510393 64.1048363632982 49.2896710039264 H 0.0 **** 0.06
28224 H 136.2209849245162 62.878881734437215 48.03520408688672 H 0.0 **** 0.06
28225 H 135.5317951579326 62.6771688801245 49.66390455798117 H 0.0 **** 0.06
28226 C 0.637530152571685 108.94234950081344 29.687469205686426 C 0.0 **** -0.24
28227 H 0.7459178596883476 109.51446094100089 28.765557763368726 H 0.0 **** 0.06
28228 H -0.273861981648281 108.34513600823202 29.639038272340414 H 0.0 **** 0.06
28229 H 0.5789763499519722 109.6264194407442 30.534098306324886 H 0.0 **** 0.06
28230 H 1.497382650816462 108.28445565154705 29.81021441374625 H 0.0 **** 0.06
28231 C 0.600343903976416 108.71951017710052 23.49676688732363 C 0.0 **** -0.24
28232 H 0.08456479778085679 109.46967163435448 24.095433506061845 H 0.0 **** 0.06
28233 H 0.5859940009688849 107.76410535054339 24.020733235185226 H 0.0 **** 0.06
28234 H 1.6328545390907934 109.03032487498109 23.335561738027714 H 0.0 **** 0.06
28235 H 0.09880921452030478 108.61409922987104 22.53483209584818 H 0.0 **** 0.06
28236 C 30.536483160764476 113.35862853009587 2.1976868431762853 C 0.0 **** -0.24
28237 H 29.700368476006588 113.97231485655797 2.5334716025168973 H 0.0 **** 0.06
28238 H 31.385399829044047 113.50555942110026 2.8649055735979516 H 0.0 **** 0.06
28239 H 30.815866016140575 113.64926701912356 1.1851629997988198 H 0.0 **** 0.06
28240 H 30.24328480588872 112.30908518207252 2.207409184950478 H 0.0 **** 0.06
28241 C 1.2960879699742733 120.43483873505124 5.543851054177026 C 0.0 **** -0.24
28242 H 1.9293168370646292 120.38209737473844 6.429112926372454 H 0.0 **** 0.06
28243 H 1.0149569827458862 119.42650162388738 5.237296366289229 H 0.0 **** 0.06
28244 H 1.842047794183859 120.92068001809612 4.7348577277466575 H 0.0 **** 0.06
28245 H 0.39884294021542743 121.00947095979913 5.773150448056072 H 0.0 **** 0.06
28246 C 85.92520053480554 39.61126939791865 34.27784984317396 C 0.0 **** -0.24
28247 H 86.21388293378895 38.96152547753533 35.104568908187 H 0.0 **** 0.06
28248 H 86.79380083565096 40.17760828574163 33.94106227228469 H 0.0 **** 0.06
28249 H 85.14916753872471 40.29925363376924 34.611458122061336 H 0.0 **** 0.06
28250 H 85.545395439615 39.00487461335953 33.45509559473442 H 0.0 **** 0.06
28251 C 9.770162365492581 115.55634161889816 99.48542510358722 C 0.0 **** -0.24
28252 H 10.34368683641975 116.04622062840326 98.6984325325518 H 0.0 **** 0.06
28253 H 10.333213884004124 114.70626758000282 99.86950209383991 H 0.0 **** 0.06
28254 H 8.819272424317433 115.21114949851503 99.07970626632657 H 0.0 **** 0.06
28255 H 9.584569438678841 116.26525205854725 100.29280317546093 H 0.0 **** 0.06
28256 C 5.800904183756117 48.5823478104286 124.69389282435333 C 0.0 **** -0.24
28257 H 6.66062847895153 49.25006596942302 124.6420214648989 H 0.0 **** 0.06
28258 H 4.8834294700326915 49.1679186743462 124.63600525834494 H 0.0 **** 0.06
28259 H 5.82449430624624 48.03379850794377 125.63545228919313 H 0.0 **** 0.06
28260 H 5.837229574093438 47.87853816644882 123.86142325391863 H 0.0 **** 0.06
28261 C 133.36585654875978 79.38418362276461 27.973455952713493 C 0.0 **** -0.24
28262 H 134.18686445270777 80.02713088732325 27.656694396910325 H 0.0 **** 0.06
28263 H 133.757468735793 78.56699700957391 28.579303293876336 H 0.0 **** 0.06
28264 H 132.86469898879818 78.97682128201247 27.095538488932448 H 0.0 **** 0.06
28265 H 132.6550612577184 79.9648674731343 28.560360821832262 H 0.0 **** 0.06
28266 C 100.99989963452032 105.38418129148461 136.4814548527922 C 0.0 **** -0.24
28267 H 101.58249841482058 105.67112243721024 137.35655797636446 H 0.0 **** 0.06
28268 H 100.53196894640732 106.26993173460394 136.05028882164848 H 0.0 **** 0.06
28269 H 100.22908013961711 104.67263424881483 136.77575763331637 H 0.0 **** 0.06
28270 H 101.65616377318702 104.92397296993124 135.74288208284472 H 0.0 **** 0.06
28271 C 117.01272368532833 79.00293442966606 127.60966499554814 C 0.0 **** -0.24
28272 H 117.45985678560535 78.39973111040226 128.40073950319197 H 0.0 **** 0.06
28273 H 116.24566515521045 79.65039276756363 128.03602169156937 H 0.0 **** 0.06
28274 H 116.56362249200475 78.34815284426367 126.86399470710126 H 0.0 **** 0.06
28275 H 117.7844759077887 79.61344352612059 127.1404675647002 H 0.0 **** 0.06
28276 C 75.22944074082352 65.63051971592236 15.218278053101528 C 0.0 **** -0.24
28277 H 74.77155094542411 64.64144507945349 15.207126440545949 H 0.0 **** 0.06
28278 H 74.4629773091441 66.38622822175961 15.044935769072254 H 0.0 **** 0.06
28279 H 75.98346978529648 65.6913186291202 14.433056563475418 H 0.0 **** 0.06
28280 H 75.69807087354997 65.80341807025499 16.186571899621526 H 0.0 **** 0.06
28281 C 57.93968492675205 78.26731677238311 38.79118393134177 C 0.0 **** -0.24
28282 H 58.441662926569904 77.60767932640965 38.08276411988997 H 0.0 **** 0.06
28283 H 57.46578138526087 77.670726610614 39.56994167384993 H 0.0 **** 0.06
28284 H 57.18236808780472 78.8520038896533 38.26804696402239 H 0.0 **** 0.06
28285 H 58.670769313132496 78.93974491165213 39.24157059162664 H 0.0 **** 0.06
28286 C 29.374488782228525 84.70587407043939 134.61350122752 C 0.0 **** -0.24
28287 H 29.481828079681918 83.91653329454988 135.35775622067248 H 0.0 **** 0.06
28288 H 30.061805721714904 85.51993653442358 134.846045505398 H 0.0 **** 0.06
28289 H 28.35062587221961 85.0799756547841 134.62528346384624 H 0.0 **** 0.06
28290 H 29.603695455297668 84.30705079799998 133.62491972016335 H 0.0 **** 0.06
28291 C 40.54934959481244 104.58102035624682 106.38949832750927 C 0.0 **** -0.24
28292 H 40.658582895411456 103.71721620963763 105.73362368129892 H 0.0 **** 0.06
28293 H 41.12428902114243 104.41953753793322 107.30189739793371 H 0.0 **** 0.06
28294 H 39.49762774449212 104.71425973416632 106.64233714082425 H 0.0 **** 0.06
28295 H 40.91696182940012 105.47168036583466 105.88040105724565 H 0.0 **** 0.06
28296 C 47.59451573241451 90.62307477248166 118.27402673910385 C 0.0 **** -0.24
28297 H 47.493949137577005 91.70801662023615 118.23708582899783 H 0.0 **** 0.06
28298 H 46.827710621774784 90.21008231870584 118.92943822660432 H 0.0 **** 0.06
28299 H 48.5804389024817 90.36237060436292 118.66000982503147 H 0.0 **** 0.06
28300 H 47.476535198397855 90.21321379649049 117.27123383534115 H 0.0 **** 0.06
28301 C 56.436333681986184 102.09366271063018 62.39512725770848 C 0.0 **** -0.24
28302 H 55.43085302057179 101.70979930614345 62.220202625559935 H 0.0 **** 0.06
28303 H 57.1411612736095 101.57739095635175 61.74328478518842 H 0.0 **** 0.06
28304 H 56.71314710975321 101.92554826232855 63.4358370702695 H 0.0 **** 0.06
28305 H 56.45907627841373 103.16244609403763 62.181899858469436 H 0.0 **** 0.06
28306 C 136.69305807335863 9.0272227439865 66.88237818445498 C 0.0 **** -0.24
28307 H 136.56765623036287 8.816667324548348 67.94436022006903 H 0.0 **** 0.06
28308 H 137.6388182285672 9.546172494654229 66.72508875095718 H 0.0 **** 0.06
28309 H 135.87148863570116 9.65550810769571 66.53786223857827 H 0.0 **** 0.06
28310 H 136.69401169348583 8.090776145903419 66.32441050730088 H 0.0 **** 0.06
28311 C 102.7846840803233 47.451005339149475 40.27659590504831 C 0.0 **** -0.24
28312 H 101.87424185042732 47.48662548041864 39.67892862308685 H 0.0 **** 0.06
28313 H 103.56029542526329 46.91946855704089 39.725233272259004 H 0.0 **** 0.06
28314 H 102.5839063834477 46.93235926706146 41.21413024481444 H 0.0 **** 0.06
28315 H 103.12008432608593 48.46664430995355 40.487197971354504 H 0.0 **** 0.06
28316 C 24.848283310576434 124.18679484967504 121.5880984924176 C 0.0 **** -0.24
28317 H 23.937565682034602 123.58843529954044 121.62758713984545 H 0.0 **** 0.06
28318 H 25.714377633528244 123.53912392884928 121.72970758690775 H 0.0 **** 0.06
28319 H 24.82324091673341 124.9373905654486 122.37744566882418 H 0.0 **** 0.06
28320 H 24.917766300958306 124.67892932101256 120.61869054085957 H 0.0 **** 0.06
28321 C 75.72223370489937 55.33287847060686 41.75641052447659 C 0.0 **** -0.24
28322 H 75.99832997249405 55.34538508909485 40.701614554614665 H 0.0 **** 0.06
28323 H 74.72471205651681 54.907004214013796 41.86447411747581 H 0.0 **** 0.06
28324 H 75.72661157731261 56.35232807184474 42.14487610072142 H 0.0 **** 0.06
28325 H 76.43824666527252 54.72907145424712 42.31335267480637 H 0.0 **** 0.06
28326 C 53.53190127817324 101.35175611282077 19.479833263247542 C 0.0 **** -0.24
28327 H 53.55175389534823 101.75792071861628 20.49154136650344 H 0.0 **** 0.06
28328 H 52.61233956161881 100.78310700525935 19.335370175910242 H 0.0 **** 0.06
28329 H 54.390873562597946 100.69738251263215 19.333936615788218 H 0.0 **** 0.06
28330 H 53.570363211450484 102.1684619680097 18.759380446213157 H 0.0 **** 0.06
28331 C 103.60936449592407 48.32125806007507 17.71538766577669 C 0.0 **** -0.24
28332 H 102.62831470718484 47.846088906165264 17.720251482420622 H 0.0 **** 0.06
28333 H 103.86482747550025 48.614858284364246 16.69712608531114 H 0.0 **** 0.06
28334 H 104.35411503382984 47.61994751705592 18.090173160646714 H 0.0 **** 0.06
28335 H 103.5880124373825 49.20455169779011 18.353800155564727 H 0.0 **** 0.06
28336 C 85.48411911357047 18.221781571531466 94.84759548808904 C 0.0 **** -0.24
28337 H 85.07154431157316 17.214093185427714 94.80842702196922 H 0.0 **** 0.06
28338 H 84.79906645105542 18.914303854955904 94.35927309131101 H 0.0 **** 0.06
28339 H 86.44670995323196 18.239621565158274 94.33474487057582 H 0.0 **** 0.06
28340 H 85.62220075838484 18.517857976842578 95.88752879722287 H 0.0 **** 0.06
28341 C 11.56419079875036 80.27474639893065 129.87993127712105 C 0.0 **** -0.24
28342 H 12.221430820188687 80.55563535539198 129.05798058859637 H 0.0 **** 0.06
28343 H 12.140369866292929 80.21876459829001 130.8034765005059 H 0.0 **** 0.06
28344 H 11.116964214861639 79.30300716762652 129.67126096700116 H 0.0 **** 0.06
28345 H 10.776655884359116 81.02114804968393 129.98712003254778 H 0.0 **** 0.06
28346 C 55.703867561500246 102.32250577126206 37.90847485738547 C 0.0 **** -0.24
28347 H 54.881503380795294 101.74172265616176 38.32424536271162 H 0.0 **** 0.06
28348 H 56.629529612251474 102.05830670647009 38.41900560699679 H 0.0 **** 0.06
28349 H 55.50418976127726 103.38585784778934 38.04454192050963 H 0.0 **** 0.06
28350 H 55.80108856388031 102.10469759960677 36.84411222382016 H 0.0 **** 0.06
28351 C 94.2572900081853 91.22256975633277 48.38350329693549 C 0.0 **** -0.24
28352 H 94.88164263137342 91.25292481519622 47.49071417255175 H 0.0 **** 0.06
28353 H 93.69911435717447 92.15472470567607 48.46896755731569 H 0.0 **** 0.06
28354 H 94.8884863811239 91.0947769636987 49.26359946140366 H 0.0 **** 0.06
28355 H 93.56096786483116 90.38705724900963 48.3118556623138 H 0.0 **** 0.06
28356 C 123.90773782045505 53.98470288448158 129.86797677653368 C 0.0 **** -0.24
28357 H 123.53887657142599 53.433460251114184 129.00323405083566 H 0.0 **** 0.06
28358 H 124.53535926692288 53.33137911917132 130.47456763274306 H 0.0 **** 0.06
28359 H 123.0635792692764 54.33272084663707 130.46289515688454 H 0.0 **** 0.06
28360 H 124.49183251417607 54.8407168251928 129.53133223893127 H 0.0 **** 0.06
28361 C 123.75449425232512 96.69713467156038 118.53659343839851 C 0.0 **** -0.24
28362 H 123.82352042378454 97.43312027370604 117.73589835446941 H 0.0 **** 0.06
28363 H 123.64240532364187 95.7023271166828 118.10599032583588 H 0.0 **** 0.06
28364 H 122.89199324932935 96.92178172743925 119.16384998010152 H 0.0 **** 0.06
28365 H 124.66142858163124 96.73160577453194 119.14045098721867 H 0.0 **** 0.06
28366 C 79.00307353299505 12.948579603727637 33.653272556548494 C 0.0 **** -0.24
28367 H 78.52081303595759 13.329565599327061 34.55326062732477 H 0.0 **** 0.06
28368 H 78.80492019505297 11.880758935421447 33.56000229544957 H 0.0 **** 0.06
28369 H 80.07761374795768 13.114200718868684 33.720003068000295 H 0.0 **** 0.06
28370 H 78.60770274926298 13.469957375694197 32.78138137328286 H 0.0 **** 0.06
28371 C 57.24385336382517 132.00554813663786 105.92784439591202 C 0.0 **** -0.24
28372 H 57.59587499997129 132.882336311495 106.4701480601194 H 0.0 **** 0.06
28373 H 56.213602498119 132.16520779436064 105.60910150906477 H 0.0 **** 0.06
28374 H 57.2916910172262 131.13323270184276 106.57941970830325 H 0.0 **** 0.06
28375 H 57.87400785360181 131.84166598509057 105.05364703573535 H 0.0 **** 0.06
28376 C 22.659086011318124 82.31311770111023 65.46948669603091 C 0.0 **** -0.24
28377 H 21.89511256730964 82.2742747264243 66.24643772095868 H 0.0 **** 0.06
28378 H 22.466834278369134 83.16165242431828 64.8121647047833 H 0.0 **** 0.06
28379 H 22.634099169236805 81.3910219239527 64.88984970624767 H 0.0 **** 0.06
28380 H 23.640476019005632 82.42618707720175 65.93162206007247 H 0.0 **** 0.06
28381 C 24.113946109350707 69.473247843917 85.96060203896566 C 0.0 **** -0.24
28382 H 25.091745188694574 69.87907055936233 85.69946991481739 H 0.0 **** 0.06
28383 H 24.066743628712658 69.3035154191486 87.03612092611694 H 0.0 **** 0.06
28384 H 23.960374110437954 68.53016881441187 85.43514729053544 H 0.0 **** 0.06
28385 H 23.338556487427695 70.18174223934545 85.6694205113277 H 0.0 **** 0.06
28386 C 104.70531673377616 58.30221667437979 51.046515626299396 C 0.0 **** -0.24
28387 H 103.93386760858039 58.852529639883215 50.5064211695603 H 0.0 **** 0.06
28388 H 105.63488307187106 58.329058860726036 50.47948485095327 H 0.0 **** 0.06
28389 H 104.38854162655855 57.2668727986656 51.177005887748805 H 0.0 **** 0.06
28390 H 104.86066185050038 58.760274976469944 52.02305570445043 H 0.0 **** 0.06
28391 C 108.80958865000633 113.83779898883085 68.81298253037583 C 0.0 **** -0.24
28392 H 109.05417036715141 112.7832129178739 68.68487289965735 H 0.0 **** 0.06
28393 H 108.72411501202953 114.0639709431018 69.87640183741966 H 0.0 **** 0.06
28394 H 107.86197153646026 114.0532695629922 68.31825194830475 H 0.0 **** 0.06
28395 H 109.59721895615053 114.44963488398022 68.37243578849444 H 0.0 **** 0.06
28396 C 96.43795952303454 5.255681117657847 52.74602756686835 C 0.0 **** -0.24
28397 H 95.85153768982431 5.526992919137665 51.86710692778763 H 0.0 **** 0.06
28398 H 96.691213797136 4.19610593885707 52.70108527117782 H 0.0 **** 0.06
28399 H 95.85440688612546 5.452892652551114 53.645642496456446 H 0.0 **** 0.06
28400 H 97.35265330527659 5.848052075715021 52.76849962208496 H 0.0 **** 0.06
28401 C 90.46376933362995 80.81501694930074 60.58953198765319 C 0.0 **** -0.24
28402 H 89.80902501757595 80.2697518943304 59.910806788490234 H 0.0 **** 0.06
28403 H 91.45938087205963 80.3707833084867 60.56869353061455 H 0.0 **** 0.06
28404 H 90.06298056011963 80.76120038553137 61.60148612400717 H 0.0 **** 0.06
28405 H 90.52336588770413 81.85696739368566 60.2773196904389 H 0.0 **** 0.06
28406 C 86.95430434841322 103.03303163852472 59.47416577875893 C 0.0 **** -0.24
28407 H 87.52322467619558 102.13740771848934 59.22453301332264 H 0.0 **** 0.06
28408 H 87.60046427154839 103.74108271844227 59.993866772602544 H 0.0 **** 0.06
28409 H 86.11670673276126 102.76388765152534 60.11846761651127 H 0.0 **** 0.06
28410 H 86.57561983308216 103.48947406422344 58.55910268961067 H 0.0 **** 0.06
28411 C 9.14251487565815 110.23901741071325 22.886343533028025 C 0.0 **** -0.24
28412 H 9.725789857284326 110.165073430131 21.96893489509833 H 0.0 **** 0.06
28413 H 9.772972833967742 110.62430631270732 23.68701277521029 H 0.0 **** 0.06
28414 H 8.769706354316384 109.25223129756945 23.16026874120277 H 0.0 **** 0.06
28415 H 8.301684760797002 110.91440243821981 22.728163739347224 H 0.0 **** 0.06
28416 C 9.052894905096537 42.04175437424226 16.518255814483638 C 0.0 **** -0.24
28417 H 8.289753133426302 41.67121452932673 15.833872208729986 H 0.0 **** 0.06
28418 H 8.5848063565669 42.663997860187976 17.280669214166153 H 0.0 **** 0.06
28419 H 9.782041870387388 42.63115148044062 15.963182150933022 H 0.0 **** 0.06
28420 H 9.553893337464899 41.19828935542637 16.994189038475668 H 0.0 **** 0.06
28421 C 125.76078927698133 82.58334748195894 13.278958582893836 C 0.0 **** -0.24
28422 H 126.37640428294962 82.05645726834288 12.550191191827025 H 0.0 **** 0.06
28423 H 126.38313469992006 83.27255509985424 13.849870225078348 H 0.0 **** 0.06
28424 H 125.30121539608112 81.8627607922061 13.955238642299605 H 0.0 **** 0.06
28425 H 124.98148559120834 83.14201312886146 12.75953334848299 H 0.0 **** 0.06
28426 C 46.11289500043449 105.83449862421655 10.86564638914382 C 0.0 **** -0.24
28427 H 46.09651616100939 105.25634998259748 11.789922309233049 H 0.0 **** 0.06
28428 H 46.604915269314915 106.7907830661666 11.044479281691508 H 0.0 **** 0.06
28429 H 45.091535309983044 106.007778311539 10.527948958581874 H 0.0 **** 0.06
28430 H 46.658808926563324 105.28114398624295 10.10133120181618 H 0.0 **** 0.06
28431 C 45.997999894325474 110.49690907775687 16.595425285864394 C 0.0 **** -0.24
28432 H 47.00528898156705 110.76630533437913 16.280061453694145 H 0.0 **** 0.06
28433 H 46.03502694998255 110.05333263164627 17.59027451264955 H 0.0 **** 0.06
28434 H 45.57741399486956 109.77733731334925 15.89244301438979 H 0.0 **** 0.06
28435 H 45.37353522864785 111.3900895540483 16.617461280673012 H 0.0 **** 0.06
28436 C 101.36201678684017 51.27000627219127 8.952713501503183 C 0.0 **** -0.24
28437 H 101.36621526980787 51.648635299245825 9.974129395242272 H 0.0 **** 0.06
28438 H 102.05873049952936 51.85013489498806 8.346976858013363 H 0.0 **** 0.06
28439 H 100.35812984188209 51.356955179264844 8.536861413044932 H 0.0 **** 0.06
28440 H 101.66541009465323 50.22297114000389 8.952641821333827 H 0.0 **** 0.06
28441 C 5.410976233660616 38.4105932768382 82.16831941648401 C 0.0 **** -0.24
28442 H 5.115291843901009 39.13073363681306 82.93138800765206 H 0.0 **** 0.06
28443 H 4.522109539021088 37.92938206328239 81.75884672483724 H 0.0 **** 0.06
28444 H 6.060500797448167 37.6574157482608 82.6134727350955 H 0.0 **** 0.06
28445 H 5.94637264763859 38.926174110510175 81.37061321843787 H 0.0 **** 0.06
28446 C 60.61446212612151 21.321809913053755 79.91464861526674 C 0.0 **** -0.24
28447 H 60.517289215998176 21.673506312880818 80.94172218886958 H 0.0 **** 0.06
28448 H 60.9780740032254 22.13434313446851 79.28549979685454 H 0.0 **** 0.06
28449 H 59.642035660201714 20.988250561598534 79.55120119204153 H 0.0 **** 0.06
28450 H 61.320449625060746 20.49113964326716 79.88017128330148 H 0.0 **** 0.06
28451 C 112.27120670383582 35.900228532286214 52.173413542811375 C 0.0 **** -0.24
28452 H 113.25302717241078 36.306752453864235 51.929274310881055 H 0.0 **** 0.06
28453 H 111.86426273359962 36.427359762161565 53.03710468847456 H 0.0 **** 0.06
28454 H 112.36490921228648 34.83912440182248 52.406170847628246 H 0.0 **** 0.06
28455 H 111.60393883055391 36.027422071714355 51.32156883716553 H 0.0 **** 0.06
28456 C 51.189699441206656 111.71031065043806 68.54167351702789 C 0.0 **** -0.24
28457 H 51.494433977751825 112.63694850335509 68.0562467254818 H 0.0 **** 0.06
28458 H 51.473776923023365 110.86219305401394 67.9173213180498 H 0.0 **** 0.06
28459 H 50.1091235696269 111.71201142975406 68.6834407149073 H 0.0 **** 0.06
28460 H 51.68257847621443 111.62869339158735 69.51058370612185 H 0.0 **** 0.06
28461 C 36.257520298950084 50.30772254243118 42.033002804285616 C 0.0 **** -0.24
28462 H 36.46438746216458 49.366639748551506 42.54200691676334 H 0.0 **** 0.06
28463 H 35.32293912196634 50.223279329017174 41.47853330570442 H 0.0 **** 0.06
28464 H 37.07075973242968 50.533280619600475 41.343495575337556 H 0.0 **** 0.06
28465 H 36.17277113817235 51.1073995864443 42.768534752588806 H 0.0 **** 0.06
28466 C 63.734921274012265 33.76485476158422 54.562781790001395 C 0.0 **** -0.24
28467 H 63.65686704362605 32.69048101516768 54.73060810534582 H 0.0 **** 0.06
28468 H 64.75787759566609 34.01419642722078 54.27988749078031 H 0.0 **** 0.06
28469 H 63.47050972546947 34.294666395223715 55.47787644276562 H 0.0 **** 0.06
28470 H 63.054764487945306 34.057095715588105 53.76286302969925 H 0.0 **** 0.06
28471 C 44.94717138928431 108.13885891991256 61.873614236227155 C 0.0 **** -0.24
28472 H 45.51416766870054 107.3117058154952 61.447458179682684 H 0.0 **** 0.06
28473 H 44.18356501298601 108.4605250330261 61.16419873325738 H 0.0 **** 0.06
28474 H 45.620600034198446 108.97018733433316 62.084184957975594 H 0.0 **** 0.06
28475 H 44.47041509793024 107.81472981824413 62.798361660492276 H 0.0 **** 0.06
28476 C 84.30484720066386 83.17135679840604 8.369676796479553 C 0.0 **** -0.24
28477 H 84.57599304880972 84.15735786453308 8.748668810168226 H 0.0 **** 0.06
28478 H 84.94293388399097 82.92025898900891 7.522505428141926 H 0.0 **** 0.06
28479 H 83.26291214748414 83.17851586450871 8.051499016553976 H 0.0 **** 0.06
28480 H 84.43961801990719 82.43100051206952 9.157380037250391 H 0.0 **** 0.06
28481 C 9.773181737057882 116.39406997189167 63.767382977512455 C 0.0 **** -0.24
28482 H 10.779741478078996 116.42709444609127 63.34959000698035 H 0.0 **** 0.06
28483 H 9.055277404497115 116.19748961177544 62.9702508331264 H 0.0 **** 0.06
28484 H 9.542981563893761 117.35108155970036 64.23559314621066 H 0.0 **** 0.06
28485 H 9.715485082235602 115.60092939922208 64.51257300134874 H 0.0 **** 0.06
28486 C 50.74812166413004 120.44809644614259 135.84555730357886 C 0.0 **** -0.24
28487 H 51.819733621531384 120.4003632562194 136.04038399499916 H 0.0 **** 0.06
28488 H 50.53828839615963 121.2787943504012 135.17233518795715 H 0.0 **** 0.06
28489 H 50.21508916013468 120.59604984222102 136.78468413107655 H 0.0 **** 0.06
28490 H 50.42178374917505 119.51508056081838 135.38572037416748 H 0.0 **** 0.06
28491 C 9.692095646194474 73.75884064343813 113.93501091923576 C 0.0 **** -0.24
28492 H 10.66645881368504 73.32910827567679 114.16671019609555 H 0.0 **** 0.06
28493 H 9.447602312678498 74.52211208698867 114.67476482723455 H 0.0 **** 0.06
28494 H 8.935407987636808 72.97491901014075 113.95718520269003 H 0.0 **** 0.06
28495 H 9.720602203418508 74.20933862185237 112.943154083059 H 0.0 **** 0.06
28496 C 76.26327345158955 74.20841520090914 29.91456426292929 C 0.0 **** -0.24
28497 H 75.20394377588923 74.42843615711513 29.781175763525454 H 0.0 **** 0.06
28498 H 76.633098808755 74.72777615336173 30.798790749861766 H 0.0 **** 0.06
28499 H 76.8161294367278 74.54459309243134 29.037395096650464 H 0.0 **** 0.06
28500 H 76.39859337922587 73.1343015588044 30.039825770380496 H 0.0 **** 0.06
28501 C 121.54308526244456 60.778676580883086 111.19508298111876 C 0.0 **** -0.24
28502 H 122.06728552113464 61.68326399281261 110.8875106407738 H 0.0 **** 0.06
28503 H 121.92594524577855 59.92749355124886 110.63305656492622 H 0.0 **** 0.06
28504 H 120.47680625377637 60.89282136711614 111.00086380931717 H 0.0 **** 0.06
28505 H 121.70201283315592 60.61227043147869 112.26080063152773 H 0.0 **** 0.06
28506 C 94.65797317710395 36.69489019181074 87.13440672885287 C 0.0 **** -0.24
28507 H 94.55339029958299 35.71529808778257 86.66735446208929 H 0.0 **** 0.06
28508 H 93.67730402384272 37.05588903518381 87.44365887304616 H 0.0 **** 0.06
28509 H 95.09434767112475 37.39307433919839 86.4198472305547 H 0.0 **** 0.06
28510 H 95.30745452307987 36.614250423312654 88.00603467071545 H 0.0 **** 0.06
28511 C 58.09127990704826 136.81374075223573 40.671304167039466 C 0.0 **** -0.24
28512 H 58.48577084919506 137.80700804279618 40.45844266136095 H 0.0 **** 0.06
28513 H 57.23511052107588 136.6174903955041 40.02570688336925 H 0.0 **** 0.06
28514 H 57.7782337776942 136.76413352656058 41.71492736325828 H 0.0 **** 0.06
28515 H 58.864359666220736 136.06837621894962 40.48719437735804 H 0.0 **** 0.06
28516 C 125.56750346595904 7.4341073269262665 87.0164861901196 C 0.0 **** -0.24
28517 H 125.48331771571196 6.5641479857312675 87.66693489284671 H 0.0 **** 0.06
28518 H 126.57892822711625 7.8360882824721045 87.07716017619296 H 0.0 **** 0.06
28519 H 124.85438581306904 8.194665906269279 87.33285602876285 H 0.0 **** 0.06
28520 H 125.35463345423805 7.140505464683656 85.9883687908047 H 0.0 **** 0.06
28521 C 22.07320593027496 52.89621164774212 87.53501727808104 C 0.0 **** -0.24
28522 H 21.808258890833564 53.800928317281816 86.98702100253229 H 0.0 **** 0.06
28523 H 21.896268224306972 52.024709984656084 86.90538967232675 H 0.0 **** 0.06
28524 H 21.461739482888234 52.82564210670424 88.43539767147969 H 0.0 **** 0.06
28525 H 23.126619754134758 52.93583981596602 87.813170131424 H 0.0 **** 0.06
28526 C 71.7019889961291 51.0619262130507 119.59021532669664 C 0.0 **** -0.24
28527 H 70.90505646452078 50.32417022360801 119.50274731808022 H 0.0 **** 0.06
28528 H 72.45630566524176 50.700447567172006 120.29112170002438 H 0.0 **** 0.06
28529 H 71.28919605459726 52.00260053500449 119.95475321454808 H 0.0 **** 0.06
28530 H 72.15954693712325 51.220088846690686 118.61334512079307 H 0.0 **** 0.06
28531 C 72.26174603659996 88.75860960606983 3.087860962038519 C 0.0 **** -0.24
28532 H 71.98126651335951 87.94355950872345 2.420086543105384 H 0.0 **** 0.06
28533 H 71.7059558460428 89.65611619706868 2.8175200340301956 H 0.0 **** 0.06
28534 H 73.33039761169408 88.95031110075642 2.9972002867379217 H 0.0 **** 0.06
28535 H 72.02781001641276 88.48155010937447 4.116229124976428 H 0.0 **** 0.06
28536 C 58.66971529147368 59.54666760839943 90.95014009336231 C 0.0 **** -0.24
28537 H 58.80706987683779 60.05937855314991 91.90166530175807 H 0.0 **** 0.06
28538 H 58.27462672991001 60.2471673928852 90.21458103370884 H 0.0 **** 0.06
28539 H 57.96925645608141 58.72161066742608 91.07906844724664 H 0.0 **** 0.06
28540 H 59.62790810306569 59.158513820136406 90.60524559073588 H 0.0 **** 0.06
28541 C 102.96479051748084 4.2483530521716055 90.2705761390524 C 0.0 **** -0.24
28542 H 103.25839979804756 4.261888950801989 89.22128094723428 H 0.0 **** 0.06
28543 H 102.79032383032839 3.2190066426616397 90.58580219197006 H 0.0 **** 0.06
28544 H 102.04992400940046 4.827648914766488 90.39841461179606 H 0.0 **** 0.06
28545 H 103.7588386255266 4.68463331018506 90.87643684249218 H 0.0 **** 0.06
28546 C 37.41981827572312 104.60632795227804 133.80063656116226 C 0.0 **** -0.24
28547 H 37.63292582062536 104.16641935331225 132.82684622490882 H 0.0 **** 0.06
28548 H 36.5887350105985 104.07593962804947 134.26539229213523 H 0.0 **** 0.06
28549 H 37.155495760542465 105.65625845924659 133.67524280927086 H 0.0 **** 0.06
28550 H 38.30280034268799 104.52817820616123 134.4356400176663 H 0.0 **** 0.06
28551 C 13.313901842953015 48.94893494917258 90.27923909438616 C 0.0 **** -0.24
28552 H 13.66260454385494 47.96435042338848 89.9689879693398 H 0.0 **** 0.06
28553 H 12.720974782426651 48.85446322327634 91.18876514583317 H 0.0 **** 0.06
28554 H 12.70091110891073 49.3832318662777 89.4889754383629 H 0.0 **** 0.06
28555 H 14.17085781174012 49.59462376893596 90.4699652255918 H 0.0 **** 0.06
28556 C 86.66188815793328 82.84526081718381 61.53525086343356 C 0.0 **** -0.24
28557 H 86.15462315187264 83.42769482896398 62.304298255843335 H 0.0 **** 0.06
28558 H 86.61373328976117 81.78582929158635 61.79027064581612 H 0.0 **** 0.06
28559 H 87.70476349665947 83.15646106122017 61.47372441960907 H 0.0 **** 0.06
28560 H 86.17616959101795 83.01093936023058 60.57411345797976 H 0.0 **** 0.06
28561 C 35.781190895391546 38.545126580858465 50.150986767262424 C 0.0 **** -0.24
28562 H 36.2495483996687 38.505209781044925 51.1355481221735 H 0.0 **** 0.06
28563 H 35.44929147709945 37.54641819064477 49.86694557944341 H 0.0 **** 0.06
28564 H 36.50250610851219 38.911327827863914 49.420867569670094 H 0.0 **** 0.06
28565 H 34.924578681556795 39.21795292627499 50.183975569998324 H 0.0 **** 0.06
28566 C 53.89628440123322 57.626430895426154 28.540840090747736 C 0.0 **** -0.24
28567 H 53.75363473921665 58.24875358353711 27.656934187544664 H 0.0 **** 0.06
28568 H 54.30514908817213 56.66150371821362 28.242777638134072 H 0.0 **** 0.06
28569 H 52.93773501891303 57.47737759961848 29.03814509756225 H 0.0 **** 0.06
28570 H 54.5876304497051 58.11969212404915 29.22429826529961 H 0.0 **** 0.06
28571 C 22.042658230830853 35.414691809293515 19.987452334910387 C 0.0 **** -0.24
28572 H 21.700378573131296 34.6077459713411 19.338634820496196 H 0.0 **** 0.06
28573 H 23.07730240268713 35.233129339807306 20.277396367824224 H 0.0 **** 0.06
28574 H 21.416451918021487 35.454618840219894 20.878188268394112 H 0.0 **** 0.06
28575 H 21.974548489187647 36.362223467370086 19.453122029320298 H 0.0 **** 0.06
28576 C 55.277448536342916 94.83371088833 112.0010213470101 C 0.0 **** -0.24
28577 H 54.353741347611134 94.74436539627462 112.57244628326464 H 0.0 **** 0.06
28578 H 55.6049334816162 93.8423053752716 111.68400731223329 H 0.0 **** 0.06
28579 H 56.04723998385202 95.28864833125024 112.62424611018605 H 0.0 **** 0.06
28580 H 55.10381093686425 95.4565386763129 111.12442536398686 H 0.0 **** 0.06
28581 C 90.64767533113971 33.07251159464113 61.92008058975004 C 0.0 **** -0.24
28582 H 90.32757463008394 33.016422217252625 62.9605894039845 H 0.0 **** 0.06
28583 H 91.34231891573222 33.90475059306533 61.79822128673929 H 0.0 **** 0.06
28584 H 89.77942010412173 33.2267035506913 61.28058102465437 H 0.0 **** 0.06
28585 H 91.14333519705866 32.14171949484127 61.64293178240038 H 0.0 **** 0.06
28586 C 23.77077940614089 23.79284543175382 112.92516030990896 C 0.0 **** -0.24
28587 H 22.98428894526748 23.05425239293477 112.76994709102144 H 0.0 **** 0.06
28588 H 24.63121735756036 23.314725469373315 113.39362686109052 H 0.0 **** 0.06
28589 H 23.39971728328672 24.58778460301906 113.57144944014772 H 0.0 **** 0.06
28590 H 24.06730739733365 24.214481067978596 111.96433845400674 H 0.0 **** 0.06
28591 C 14.374326355730666 50.567587461549266 20.896416960644643 C 0.0 **** -0.24
28592 H 14.250951107420654 51.362645302644026 20.16049327081467 H 0.0 **** 0.06
28593 H 13.39846856595841 50.159148257370305 21.156695648164174 H 0.0 **** 0.06
28594 H 14.851087016704014 50.97075503603003 21.78970035737251 H 0.0 **** 0.06
28595 H 14.99828224428876 49.77925709375856 20.475667238210818 H 0.0 **** 0.06
28596 C 20.798236005754035 16.850132404181267 35.66043731748678 C 0.0 **** -0.24
28597 H 20.80575816557561 16.445518307198242 34.64854261306601 H 0.0 **** 0.06
28598 H 20.007633739201538 17.594919246262343 35.74869065816543 H 0.0 **** 0.06
28599 H 21.76123001038738 17.314986959668865 35.87268215094221 H 0.0 **** 0.06
28600 H 20.61961175763912 16.044785276704005 36.37231821011511 H 0.0 **** 0.06
28601 C 25.879768133102182 134.8744149359281 13.64666946780983 C 0.0 **** -0.24
28602 H 25.665768400335267 134.11326923497472 14.397651787830455 H 0.0 **** 0.06
28603 H 26.048470061737476 135.8321855949742 14.138310655761359 H 0.0 **** 0.06
28604 H 25.032643003703427 134.95995223601773 12.965054830550173 H 0.0 **** 0.06
28605 H 26.769991015931048 134.59049639118854 13.085935561116372 H 0.0 **** 0.06
28606 C 133.09585659816105 21.591446014094572 49.48878835075824 C 0.0 **** -0.24
28607 H 132.19478756541224 20.999481402161123 49.32453971316177 H 0.0 **** 0.06
28608 H 132.97194742877542 22.574513498855964 49.0347565329933 H 0.0 **** 0.06
28609 H 133.94881154689398 21.085799954556883 49.03539998440691 H 0.0 **** 0.06
28610 H 133.26641472490581 21.703123051391252 50.55965773439728 H 0.0 **** 0.06
28611 C 19.065130427221362 8.321747961480355 122.07497946893034 C 0.0 **** -0.24
28612 H 18.781063309152273 7.3255646918030095 122.41448033538484 H 0.0 **** 0.06
28613 H 19.738681217199485 8.236312370752671 121.22206495367755 H 0.0 **** 0.06
28614 H 19.568777136478218 8.850850310550243 122.8847861237976 H 0.0 **** 0.06
28615 H 18.17227854627214 8.87381092494806 121.78075832006073 H 0.0 **** 0.06
28616 C 41.335743147207936 2.019663597699889 44.690170605998425 C 0.0 **** -0.24
28617 H 40.49373840054891 1.3893358552699908 44.97831477414552 H 0.0 **** 0.06
28618 H 42.12006636635934 1.4006539631534451 44.25436648780012 H 0.0 **** 0.06
28619 H 41.72304084693541 2.532843101821072 45.570582082267705 H 0.0 **** 0.06
28620 H 41.00378377275674 2.7551282392765017 43.95758970151629 H 0.0 **** 0.06
28621 C 26.854075464112256 112.3942302537717 98.23252756673472 C 0.0 **** -0.24
28622 H 27.454056699768216 113.28363225846886 98.03910402176304 H 0.0 **** 0.06
28623 H 26.085482204696106 112.30106203999057 97.46533453843506 H 0.0 **** 0.06
28624 H 26.38320135649191 112.47954100483946 99.21162903795434 H 0.0 **** 0.06
28625 H 27.496151775742135 111.51232750734124 98.2129642316658 H 0.0 **** 0.06
28626 C 73.31865665524396 130.83093588815507 80.05109332348445 C 0.0 **** -0.24
28627 H 73.19934706461171 130.03974300681062 79.31001426632355 H 0.0 **** 0.06
28628 H 72.97037916045696 131.77564683924544 79.63194045099465 H 0.0 **** 0.06
28629 H 74.37029667300959 130.91892454852132 80.32295046798174 H 0.0 **** 0.06
28630 H 72.73280867754005 130.58909354797618 80.93817760107083 H 0.0 **** 0.06
28631 C 53.75500586837087 63.764963622605876 96.30306512195634 C 0.0 **** -0.24
28632 H 52.77051295139093 63.29863433049948 96.30648340226477 H 0.0 **** 0.06
28633 H 53.9027896539567 64.29388904595979 95.36083268172581 H 0.0 **** 0.06
28634 H 54.52156338080384 62.996826233709456 96.41221942245292 H 0.0 **** 0.06
28635 H 53.82715789254654 64.47008689488348 97.13137444619692 H 0.0 **** 0.06
28636 C 136.7621680998759 103.13411751944398 92.24312779367654 C 0.0 **** -0.24
28637 H 136.76352475420646 102.75756910195744 91.22013487091658 H 0.0 **** 0.06
28638 H 136.76612503761038 102.29474232926447 92.93917573633274 H 0.0 **** 0.06
28639 H 135.86911158141845 103.7380756204447 92.40734041057846 H 0.0 **** 0.06
28640 H 137.64991102626817 103.74608302610923 92.40586015687808 H 0.0 **** 0.06
28641 C 25.459705060549396 17.022721491773808 34.61084978810857 C 0.0 **** -0.24
28642 H 24.402858486282355 17.184218923760852 34.82432105484236 H 0.0 **** 0.06
28643 H 25.827380306248642 16.18788986753509 35.20948844848863 H 0.0 **** 0.06
28644 H 26.021950173522555 17.922576239599948 34.859526101534925 H 0.0 **** 0.06
28645 H 25.586447217425444 16.794682042304913 33.55283113626456 H 0.0 **** 0.06
28646 C 28.854013204700436 118.49399986447536 95.80976175645205 C 0.0 **** -0.24
28647 H 29.58723976349193 119.1631408011031 96.26046043704554 H 0.0 **** 0.06
28648 H 27.97455452672341 118.43529214833956 96.44958580623056 H 0.0 **** 0.06
28649 H 29.28979212873135 117.50137428371542 95.69694225470019 H 0.0 **** 0.06
28650 H 28.56595788223038 118.87807041388078 94.83025622291677 H 0.0 **** 0.06
28651 C 59.23615049668348 60.557749222831816 96.3064687846458 C 0.0 **** -0.24
28652 H 58.596165683406724 61.11708363952235 96.98903271676647 H 0.0 **** 0.06
28653 H 58.65375265699183 60.23758233361718 95.44303208158823 H 0.0 **** 0.06
28654 H 59.63661879756803 59.68292631489352 96.81935387039033 H 0.0 **** 0.06
28655 H 60.05786493095714 61.1936351520084 95.97643309968367 H 0.0 **** 0.06
28656 C 98.53204501583991 114.71603684944287 131.21584777413833 C 0.0 **** -0.24
28657 H 98.31987084167808 115.67725316237224 130.74852952482746 H 0.0 **** 0.06
28658 H 98.6706881411223 114.85572980147236 132.28836960059385 H 0.0 **** 0.06
28659 H 99.4395692043556 114.29398627205472 130.78397137307206 H 0.0 **** 0.06
28660 H 97.69688231071144 114.0363717871169 131.04351156493817 H 0.0 **** 0.06
28661 C 30.98331852425912 76.04020523118544 107.70012522029053 C 0.0 **** -0.24
28662 H 30.580889132778054 76.61300177802423 108.53602640695722 H 0.0 **** 0.06
28663 H 32.03630042594321 75.82282652388852 107.88230020654268 H 0.0 **** 0.06
28664 H 30.884773723376213 76.61850112606066 106.78209973770129 H 0.0 **** 0.06
28665 H 30.43064123481372 75.10597252174125 107.60158531333947 H 0.0 **** 0.06
28666 C 62.89092492436542 49.929427634325236 48.5495910766827 C 0.0 **** -0.24
28667 H 63.56020784168098 50.029709109061685 47.69528606570674 H 0.0 **** 0.06
28668 H 61.865412903195704 49.81924829026815 48.19585288609363 H 0.0 **** 0.06
28669 H 62.96553378072093 50.81827186694409 49.17611602628307 H 0.0 **** 0.06
28670 H 63.17165671826214 49.05086414980644 49.12909332126381 H 0.0 **** 0.06
28671 C 72.0449429035538 105.99191463873764 134.3138611630347 C 0.0 **** -0.24
28672 H 72.06696377233588 105.47424898234038 133.35451115161976 H 0.0 **** 0.06
28673 H 71.75464400655179 107.03088992482984 134.15843285864557 H 0.0 **** 0.06
28674 H 73.03409708976753 105.95334557355156 134.76978053071892 H 0.0 **** 0.06
28675 H 71.3226730702639 105.5074231990932 134.97027212928364 H 0.0 **** 0.06
28676 C 113.83573226787314 68.37591964085865 107.46915448351075 C 0.0 **** -0.24
28677 H 114.73930488692031 68.35663256756374 108.07772128304985 H 0.0 **** 0.06
28678 H 113.73006016237088 69.3581243689234 107.00751568328383 H 0.0 **** 0.06
28679 H 112.969023103864 68.17514382998002 108.0992627127446 H 0.0 **** 0.06
28680 H 113.90503438080202 67.61510094034182 106.69219493025389 H 0.0 **** 0.06
28681 C 94.40716744314994 86.37808248188203 38.38608019557948 C 0.0 **** -0.24
28682 H 94.17077043609186 87.04431259331776 37.55663764914049 H 0.0 **** 0.06
28683 H 95.4294891161424 86.56187499937094 38.71967855727823 H 0.0 **** 0.06
28684 H 94.31338404481653 85.34256268211638 38.05855539850962 H 0.0 **** 0.06
28685 H 93.71704501088968 86.56283965189704 39.2088352275729 H 0.0 **** 0.06
28686 C 67.29021208100927 55.75526008698611 92.76735818968196 C 0.0 **** -0.24
28687 H 67.76455203025108 56.48528845253293 92.11160880714445 H 0.0 **** 0.06
28688 H 66.32657819669636 56.14056016135277 93.10232192592133 H 0.0 **** 0.06
28689 H 67.92939431295522 55.57371498060013 93.63110727715993 H 0.0 **** 0.06
28690 H 67.1387971014167 54.82227138216598 92.22337593032279 H 0.0 **** 0.06
28691 C 110.11527046168774 33.90303605075793 123.53367721424388 C 0.0 **** -0.24
28692 H 109.23119381632918 33.3546159709097 123.85894320599971 H 0.0 **** 0.06
28693 H 110.46731360691169 34.53974451673028 124.34542657385668 H 0.0 **** 0.06
28694 H 109.86330169098957 34.51994062358226 122.67032467308479 H 0.0 **** 0.06
28695 H 110.89977009409881 33.197440691102216 123.25924580044477 H 0.0 **** 0.06
28696 C 134.70170066880218 115.53709767824694 64.96802158959963 C 0.0 **** -0.24
28697 H 134.7377484808919 114.76467226247743 64.20024521422367 H 0.0 **** 0.06
28698 H 135.0402129377518 116.48375926289941 64.54600217674194 H 0.0 **** 0.06
28699 H 135.3497222722357 115.25634861926156 65.79735141349353 H 0.0 **** 0.06
28700 H 133.67837316313538 115.64401303878779 65.32697695560378 H 0.0 **** 0.06
28701 C 136.66383524985827 48.194250818956846 8.795322411439088 C 0.0 **** -0.24
28702 H 135.81385784416125 48.296542158513205 9.469624962701744 H 0.0 **** 0.06
28703 H 137.3690287741847 47.47211601332893 9.207933027289016 H 0.0 **** 0.06
28704 H 137.15580214188105 49.15961711420789 8.681843353743375 H 0.0 **** 0.06
28705 H 136.31503896446003 47.84730649004007 7.823061741909839 H 0.0 **** 0.06
28706 C 115.10007566050407 67.85429646578581 57.62737621081145 C 0.0 **** -0.24
28707 H 115.79079863401137 68.68946870838204 57.514517334547435 H 0.0 **** 0.06
28708 H 114.78913417667843 67.77812058329431 58.668658414640674 H 0.0 **** 0.06
28709 H 115.59622262148 66.93020128289317 57.326564868406024 H 0.0 **** 0.06
28710 H 114.22554326919126 68.01823333169472 56.997175531389644 H 0.0 **** 0.06
28711 C 72.95120657515785 73.7457200070525 95.94263956858285 C 0.0 **** -0.24
28712 H 72.86163380032663 73.32733725318496 96.94535471745817 H 0.0 **** 0.06
28713 H 71.95638677934332 73.94338983662942 95.54157306124205 H 0.0 **** 0.06
28714 H 73.4684296447026 73.03511840824267 95.29831534587937 H 0.0 **** 0.06
28715 H 73.51697029694468 74.67607705572694 95.98676678985066 H 0.0 **** 0.06
28716 C 27.279043710423537 16.33458799916241 12.822897469577413 C 0.0 **** -0.24
28717 H 26.39381170153166 15.704383549126362 12.750009810049136 H 0.0 **** 0.06
28718 H 28.10094244986999 15.870843904751666 12.27652032394846 H 0.0 **** 0.06
28719 H 27.55827550882509 16.449450330325732 13.870477696575136 H 0.0 **** 0.06
28720 H 27.063857828641176 17.314205452275786 12.395040266674869 H 0.0 **** 0.06
28721 C 58.484714940431246 34.24342175104857 15.294318078154163 C 0.0 **** -0.24
28722 H 58.79440474185225 34.59603626669275 14.31064878392715 H 0.0 **** 0.06
28723 H 58.95371041480959 34.856556218483036 16.064781897364526 H 0.0 **** 0.06
28724 H 58.79103708470427 33.204404134907975 15.420009165696285 H 0.0 **** 0.06
28725 H 57.401149341955886 34.31493362175564 15.380918564874037 H 0.0 **** 0.06
28726 C 70.6419155762916 56.97319608901384 90.69828045875389 C 0.0 **** -0.24
28727 H 70.93951556450426 56.154857306251586 91.35507343669666 H 0.0 **** 0.06
28728 H 69.57624436653933 56.894245972782386 90.48142139989356 H 0.0 **** 0.06
28729 H 71.20812216864361 56.9158860135619 89.76897174608078 H 0.0 **** 0.06
28730 H 70.84416431461253 57.92495921402008 91.18933183456473 H 0.0 **** 0.06
28731 C 24.967945539905713 108.64803969889999 95.25114139838851 C 0.0 **** -0.24
28732 H 25.19712590119559 108.14959243432199 94.30849203840091 H 0.0 **** 0.06
28733 H 25.60902880063901 109.52219528935763 95.36454472020061 H 0.0 **** 0.06
28734 H 25.143376124643936 107.95874322294219 96.07807828561401 H 0.0 **** 0.06
28735 H 23.92383490525708 108.95878785530664 95.25189255774181 H 0.0 **** 0.06
28736 C 12.387603010406423 94.81670682261719 4.084595915467958 C 0.0 **** -0.24
28737 H 11.982938269330816 94.68072368263675 3.0820296774937788 H 0.0 **** 0.06
28738 H 11.577818971398912 95.06196123527886 4.772332915505075 H 0.0 **** 0.06
28739 H 13.11488912759063 95.62834497936572 4.075351809608804 H 0.0 **** 0.06
28740 H 12.874378761885424 93.89635504875778 4.407934843737905 H 0.0 **** 0.06
28741 C 125.66324849960783 107.94822364225121 96.93184255618655 C 0.0 **** -0.24
28742 H 126.01583292210084 108.68594681622331 96.21212613065768 H 0.0 **** 0.06
28743 H 126.24548277578236 108.03044029320955 97.8501544726173 H 0.0 **** 0.06
28744 H 125.7804347226516 106.94824506690581 96.51429340123957 H 0.0 **** 0.06
28745 H 124.61067508529482 108.12875599372205 97.15145441511606 H 0.0 **** 0.06
28746 C 64.99335707778388 95.13244500029316 30.45551266979976 C 0.0 **** -0.24
28747 H 64.89526344410946 94.91889637408292 29.391162312311394 H 0.0 **** 0.06
28748 H 66.04586401760737 95.1058768859973 30.736196299058747 H 0.0 **** 0.06
28749 H 64.44462795892954 94.38414506634558 31.027893357288235 H 0.0 **** 0.06
28750 H 64.58536903933468 96.12169366395597 30.66678022022586 H 0.0 **** 0.06
28751 C 99.93401653299735 33.577149426687015 15.41059838010753 C 0.0 **** -0.24
28752 H 98.93192284170443 33.849623575874716 15.739279164238326 H 0.0 **** 0.06
28753 H 99.90838190265309 33.299643234515315 14.356796575315087 H 0.0 **** 0.06
28754 H 100.29279176867469 32.73347494719911 16.00073802100792 H 0.0 **** 0.06
28755 H 100.604497284627 34.42586739158156 15.547212652518397 H 0.0 **** 0.06
28756 C 29.10949575131616 68.6440837336847 58.11494391626252 C 0.0 **** -0.24
28757 H 29.643068726900594 69.49030104856143 57.6811464548703 H 0.0 **** 0.06
28758 H 29.35897169742833 68.56188067382591 59.17285765309002 H 0.0 **** 0.06
28759 H 29.40051930237496 67.7289890307009 57.59921623855317 H 0.0 **** 0.06
28760 H 28.03620655962706 68.7973993798287 58.00500911976356 H 0.0 **** 0.06
28761 C 41.71988504135071 103.25384817289819 120.32609354784832 C 0.0 **** -0.24
28762 H 41.105156584739774 102.6234429310079 120.96984994015459 H 0.0 **** 0.06
28763 H 41.39053159409946 104.28895523519981 120.41223124500999 H 0.0 **** 0.06
28764 H 41.62020421003109 102.92416629175278 119.29183552353277 H 0.0 **** 0.06
28765 H 42.76367122833827 103.17691836214254 120.63316900454114 H 0.0 **** 0.06
28766 C 20.80318237414474 1.6653735084009895 89.27757873671555 C 0.0 **** -0.24
28767 H 20.689030036924464 1.852014127409202 90.34557527354818 H 0.0 **** 0.06
28768 H 19.87595172360301 1.252309966517668 88.87948336129392 H 0.0 **** 0.06
28769 H 21.615312626132493 0.9564863542280229 89.11780234530505 H 0.0 **** 0.06
28770 H 21.032405479328247 2.601637506327794 88.76849763796503 H 0.0 **** 0.06
28771 C 33.10752745398262 72.73275940751711 22.62235804941821 C 0.0 **** -0.24
28772 H 32.443376974876955 73.59348638731561 22.542744748626035 H 0.0 **** 0.06
28773 H 32.525517846153235 71.81566603709348 22.52402346079147 H 0.0 **** 0.06
28774 H 33.60523776135682 72.74560869750907 23.592090185051433 H 0.0 **** 0.06
28775 H 33.85406174962697 72.77645089741975 21.829433302663602 H 0.0 **** 0.06
28776 C 2.602490213861927 103.95071925572475 9.356301700706432 C 0.0 **** -0.24
28777 H 1.5772434800767883 103.86558167040644 8.994991824897863 H 0.0 **** 0.06
28778 H 2.940520335011854 104.98172720938416 9.24552551232556 H 0.0 **** 0.06
28779 H 3.2477731843313222 103.29169394349397 8.77615124647146 H 0.0 **** 0.06
28780 H 2.6417158176927273 103.66576477382493 10.407091547075645 H 0.0 **** 0.06
28781 C 9.043971739853987 136.97004885547364 26.915302596247884 C 0.0 **** -0.24
28782 H 8.68034380012378 136.58874479920124 25.960314601400363 H 0.0 **** 0.06
28783 H 8.86230807207076 138.04305481521868 26.970316685939096 H 0.0 **** 0.06
28784 H 10.112450086085602 136.77571160522277 26.999540620918246 H 0.0 **** 0.06
28785 H 8.517945872954556 136.46983506735464 27.728625428634047 H 0.0 **** 0.06
28786 C 31.850772376728457 23.770163542991384 127.27789781372869 C 0.0 **** -0.24
28787 H 30.855157214372298 24.044224030361704 127.62647685590157 H 0.0 **** 0.06
28788 H 32.48677776340048 23.548182722934655 128.135584111757 H 0.0 **** 0.06
28789 H 32.27836167981971 24.597277598179232 126.71217461460613 H 0.0 **** 0.06
28790 H 31.781725250780028 22.889988327612684 126.63932980110715 H 0.0 **** 0.06
28791 C 89.28643028997897 87.23283370669594 91.50680544258277 C 0.0 **** -0.24
28792 H 89.76074223041559 88.21414164867815 91.48358938505153 H 0.0 **** 0.06
28793 H 90.05301798929634 86.4598176547798 91.55613619709177 H 0.0 **** 0.06
28794 H 88.68982208645616 87.09601240474566 90.60390194397434 H 0.0 **** 0.06
28795 H 88.64088136021513 87.16203970230727 92.38219384074971 H 0.0 **** 0.06
28796 C 76.75082032454628 95.08308110878787 100.57838002143642 C 0.0 **** -0.24
28797 H 76.1119152568703 95.45508842154928 99.77772534304492 H 0.0 **** 0.06
28798 H 76.92274130792325 95.87768795501577 101.30371728743785 H 0.0 **** 0.06
28799 H 77.70398875219055 94.75888830767136 100.16027351116888 H 0.0 **** 0.06
28800 H 76.26413582541402 94.23999028575051 101.06950135019541 H 0.0 **** 0.06
28801 C 43.78055548762771 130.73700775243924 84.98067894618353 C 0.0 **** -0.24
28802 H 43.32210056306502 129.94580726424795 84.38772876612785 H 0.0 **** 0.06
28803 H 44.35170680574478 131.39748104779358 84.32616432747068 H 0.0 **** 0.06
28804 H 44.445876972128474 130.2959993248944 85.7227927786652 H 0.0 **** 0.06
28805 H 43.003047726167125 131.31031061336978 85.4854972989502 H 0.0 **** 0.06
28806 C 35.54990366462883 68.42065775468919 99.34106037411576 C 0.0 **** -0.24
28807 H 34.76543577925352 67.95546195194981 98.74366260830593 H 0.0 **** 0.06
28808 H 35.698263760308464 67.84669179060757 100.25657634127958 H 0.0 **** 0.06
28809 H 35.259102523171634 69.43976944248558 99.59383512948602 H 0.0 **** 0.06
28810 H 36.477602935486686 68.43871697453795 98.76897909042816 H 0.0 **** 0.06
28811 C 117.5590120555027 74.28978238352002 70.29643708488697 C 0.0 **** -0.24
28812 H 117.06800295799292 73.50802577842852 69.71737947774477 H 0.0 **** 0.06
28813 H 117.88853341030796 75.08511079813717 69.62773875220773 H 0.0 **** 0.06
28814 H 118.42112251824216 73.87018146648728 70.8149693265799 H 0.0 **** 0.06
28815 H 116.85821817931401 74.6944834090571 71.0271464105723 H 0.0 **** 0.06
28816 C 94.48418884978949 117.05478298197684 118.55645214527769 C 0.0 **** -0.24
28817 H 94.163103686576 116.83349870596604 119.57398131820031 H 0.0 **** 0.06
28818 H 95.55778365381724 117.24312632152046 118.54767447198626 H 0.0 **** 0.06
28819 H 93.95711055588907 117.93707435265753 118.19263832655042 H 0.0 **** 0.06
28820 H 94.2587575028758 116.20543254776334 117.91151446437391 H 0.0 **** 0.06
28821 C 115.96639093475775 109.25932115555707 41.348923072911575 C 0.0 **** -0.24
28822 H 117.00019067754869 108.93186131820443 41.243352419290034 H 0.0 **** 0.06
28823 H 115.9454373607818 110.26742738045411 41.762060842132854 H 0.0 **** 0.06
28824 H 115.43718959252931 108.5809591785291 42.01889551653929 H 0.0 **** 0.06
28825 H 115.48213434090167 109.25587770673957 40.3719149868424 H 0.0 **** 0.06
28826 C 16.960500662359394 98.30760239323365 135.57873820336533 C 0.0 **** -0.24
28827 H 16.273495257193375 98.03208707621687 134.77735063288657 H 0.0 **** 0.06
28828 H 17.511602085661032 99.20302419447587 135.29151167981965 H 0.0 **** 0.06
28829 H 17.660255161808422 97.49016317778538 135.75377491343357 H 0.0 **** 0.06
28830 H 16.395603436158396 98.50481304601514 136.48952254531167 H 0.0 **** 0.06
28831 C 116.11927832092329 40.173255735570535 71.97360394233459 C 0.0 **** -0.24
28832 H 116.72709930374722 40.08655608186996 71.07283155354952 H 0.0 **** 0.06
28833 H 115.10863621622252 40.479904272902274 71.70174675587947 H 0.0 **** 0.06
28834 H 116.55881060496986 40.91759817074757 72.63854892638653 H 0.0 **** 0.06
28835 H 116.08298188659438 39.209873422689384 72.48124663615272 H 0.0 **** 0.06
28836 C 107.89256708453186 121.3711290448426 88.94569937838686 C 0.0 **** -0.24
28837 H 107.21981215096142 122.04237212425845 89.47863703628933 H 0.0 **** 0.06
28838 H 107.9217890989056 121.64684480018396 87.8912919698063 H 0.0 **** 0.06
28839 H 107.53570819527454 120.34552761757938 89.04328286287408 H 0.0 **** 0.06
28840 H 108.89439193516614 121.44884501563519 89.36928916295973 H 0.0 **** 0.06
28841 C 87.63881382428906 99.5995975169394 100.15286983475714 C 0.0 **** -0.24
28842 H 88.36995184507356 100.17365268006145 99.58425846085976 H 0.0 **** 0.06
28843 H 87.96622290722001 98.56142582263836 100.22191304170349 H 0.0 **** 0.06
28844 H 86.67285735343654 99.64301961773289 99.64973796409798 H 0.0 **** 0.06
28845 H 87.5458882194547 100.01896112605864 101.15380438652272 H 0.0 **** 0.06
28846 C 123.29446136596846 79.43256005947904 104.55227278386047 C 0.0 **** -0.24
28847 H 123.84127173055606 80.37472826785086 104.5024570898978 H 0.0 **** 0.06
28848 H 123.52175758933794 78.93032222866503 105.49215235693154 H 0.0 **** 0.06
28849 H 123.59191284004368 78.79643086532829 103.71798064032838 H 0.0 **** 0.06
28850 H 122.22418387672997 79.63081770079194 104.49447081737179 H 0.0 **** 0.06
28851 C 111.97646222333145 72.18370525740379 75.32071106779475 C 0.0 **** -0.24
28852 H 111.3506577303109 71.3031888052069 75.17886422253451 H 0.0 **** 0.06
28853 H 112.30854475094281 72.23000767002401 76.35786888802278 H 0.0 **** 0.06
28854 H 111.40305040833152 73.0794968502572 75.08163495380472 H 0.0 **** 0.06
28855 H 112.84395525571767 72.12251311538948 74.6631637705828 H 0.0 **** 0.06
28856 C 42.83132273815005 14.435972045380083 76.20466855499711 C 0.0 **** -0.24
28857 H 43.09383580676902 15.328572954965125 76.77346607328036 H 0.0 **** 0.06
28858 H 43.3856485873751 13.581648796864044 76.59279184348344 H 0.0 **** 0.06
28859 H 43.08286597381803 14.587265760233436 75.15478413800088 H 0.0 **** 0.06
28860 H 41.76135516451592 14.247985863033307 76.29861902004745 H 0.0 **** 0.06
28861 C 59.40580391548758 38.52784236985474 99.84647277317168 C 0.0 **** -0.24
28862 H 59.14299077312367 39.51741179277303 100.22151238657852 H 0.0 **** 0.06
28863 H 58.64443797978829 38.192667705628594 99.14134798271965 H 0.0 **** 0.06
28864 H 59.463690398433585 37.82726544421206 100.6788874177384 H 0.0 **** 0.06
28865 H 60.372125964085384 38.57633178893201 99.34332111455598 H 0.0 **** 0.06
28866 C 88.44299240273122 112.62912020157819 70.30787283550399 C 0.0 **** -0.24
28867 H 89.07440003891688 112.52480113813263 69.42523870126377 H 0.0 **** 0.06
28868 H 87.44332146874683 112.94119083925358 70.00482494444338 H 0.0 **** 0.06
28869 H 88.87172162048466 113.37742883571522 70.97491071757315 H 0.0 **** 0.06
28870 H 88.38314369529017 111.67182473284737 70.82682238541321 H 0.0 **** 0.06
28871 C 105.81228923895793 93.53040730914017 23.52253893346149 C 0.0 **** -0.24
28872 H 106.71222947634675 93.13304143671013 23.993837223684423 H 0.0 **** 0.06
28873 H 105.65275131450502 93.03233556264394 22.566391857280962 H 0.0 **** 0.06
28874 H 105.93110470620735 94.60205529806774 23.35936239091488 H 0.0 **** 0.06
28875 H 104.95568757205308 93.35539727649564 24.17295503388769 H 0.0 **** 0.06
28876 C 80.84730768170067 120.74692179888442 82.70122238471914 C 0.0 **** -0.24
28877 H 79.83915162486812 120.79103539676223 83.11191005899471 H 0.0 **** 0.06
28878 H 81.13586261698339 121.7335802290292 82.33983586180514 H 0.0 **** 0.06
28879 H 80.87189179220246 120.03591097177113 81.87505816724843 H 0.0 **** 0.06
28880 H 81.5417203332097 120.4254941170415 83.47672243117347 H 0.0 **** 0.06
28881 C 121.72330243523183 97.25764606284046 8.262422004353425 C 0.0 **** -0.24
28882 H 121.32131176797076 96.29500663708902 7.9489753136149375 H 0.0 **** 0.06
28883 H 122.37556162687261 97.11615471291113 9.124908099434663 H 0.0 **** 0.06
28884 H 120.90317748667215 97.92374451167049 8.53274966806623 H 0.0 **** 0.06
28885 H 122.29253614890021 97.69738913846899 7.443883039929403 H 0.0 **** 0.06
28886 C 3.492284958416871 57.963280475887686 76.04970015095367 C 0.0 **** -0.24
28887 H 4.274870736378389 57.20339349726201 76.04507148525703 H 0.0 **** 0.06
28888 H 3.860966774272651 58.866439592106886 75.56351768894395 H 0.0 **** 0.06
28889 H 3.21395921901237 58.19140535253864 77.07817370259745 H 0.0 **** 0.06
28890 H 2.6210052617444255 57.589644762119605 75.51156251457847 H 0.0 **** 0.06
28891 C 60.74394392442048 102.6128302256576 128.51027914032852 C 0.0 **** -0.24
28892 H 60.64424589674354 101.53884982013085 128.35155146394635 H 0.0 **** 0.06
28893 H 59.79322918754002 103.0185864017931 128.85704636223832 H 0.0 **** 0.06
28894 H 61.02373993642746 103.09372422812737 127.57298505085124 H 0.0 **** 0.06
28895 H 61.513962467791714 102.80033654215893 129.25826434156176 H 0.0 **** 0.06
28896 C 19.104950265303785 89.57326816280562 129.88197152414284 C 0.0 **** -0.24
28897 H 18.053919930992038 89.69761471070211 129.62090018773188 H 0.0 **** 0.06
28898 H 19.724930804539042 90.08636049331764 129.14598204757363 H 0.0 **** 0.06
28899 H 19.35305096104844 88.51250502899774 129.89138550524973 H 0.0 **** 0.06
28900 H 19.28516708286429 89.99818352228624 130.86967741183395 H 0.0 **** 0.06
28901 C 73.19180025310965 35.396115781557796 128.55318815968394 C 0.0 **** -0.24
28902 H 73.58534175454456 35.4989703352218 129.56534435970957 H 0.0 **** 0.06
28903 H 72.15589112229257 35.73439462924068 128.5312621026448 H 0.0 **** 0.06
28904 H 73.24003066916623 34.350624415227884 128.2495063055863 H 0.0 **** 0.06
28905 H 73.78637650995155 36.00230146187627 127.87030967805657 H 0.0 **** 0.06
28906 C 69.17398559126929 26.093862665097014 52.9953411254113 C 0.0 **** -0.24
28907 H 70.25889719459741 26.167424085981317 52.92191374751485 H 0.0 **** 0.06
28908 H 68.90730434358983 25.554065014736743 53.90469514445442 H 0.0 **** 0.06
28909 H 68.78598550086838 25.55940812607328 52.12870723647859 H 0.0 **** 0.06
28910 H 68.7433578167026 27.095027999471405 53.02683375203492 H 0.0 **** 0.06
28911 C 124.82046615440623 14.582091568340473 78.49846232598105 C 0.0 **** -0.24
28912 H 124.35015814263261 14.85304919162693 77.55380082529534 H 0.0 **** 0.06
28913 H 124.2708781678711 15.039084650520614 79.32249479739166 H 0.0 **** 0.06
28914 H 125.85038769931481 14.938029751869855 78.507608659615 H 0.0 **** 0.06
28915 H 124.80964236765777 13.497902887523388 78.61145269418907 H 0.0 **** 0.06
28916 C 3.337902799015275 8.863330777874637 13.58037336493419 C 0.0 **** -0.24
28917 H 4.150500846218396 9.485345888649988 13.95706783598672 H 0.0 **** 0.06
28918 H 2.6496894431158786 9.478323715086844 13.000063835928472 H 0.0 **** 0.06
28919 H 2.8052911321138154 8.413920066696562 14.418888670078559 H 0.0 **** 0.06
28920 H 3.7468509736360076 8.076843233956595 12.945971439327025 H 0.0 **** 0.06
28921 C 108.44048673591391 25.47480347320922 38.77835329669654 C 0.0 **** -0.24
28922 H 108.94611106856715 26.429517215841656 38.63698243627084 H 0.0 **** 0.06
28923 H 107.36275811507673 25.637026934568922 38.818174025583005 H 0.0 **** 0.06
28924 H 108.77491935686238 25.022395005340513 39.711522855790975 H 0.0 **** 0.06
28925 H 108.6779565971158 24.81164675306968 37.94645649005412 H 0.0 **** 0.06
28926 C 68.00755397541865 41.29831149158538 58.49392549558229 C 0.0 **** -0.24
28927 H 67.72811454175029 42.17523298415915 57.90888411371992 H 0.0 **** 0.06
28928 H 67.47798104101342 41.3134008681506 59.44721555719212 H 0.0 **** 0.06
28929 H 69.08298144558741 41.311661314198055 58.6747061937142 H 0.0 **** 0.06
28930 H 67.74353673419768 40.39576814239265 57.94433621326124 H 0.0 **** 0.06
28931 C 78.40900059699402 87.90032801806716 4.06041518559924 C 0.0 **** -0.24
28932 H 77.34598088251589 87.88556519003969 4.300246774353603 H 0.0 **** 0.06
28933 H 78.64157395877932 88.80405698786892 3.4967001290112663 H 0.0 **** 0.06
28934 H 78.65887281912003 87.02443377280635 3.462033044845594 H 0.0 **** 0.06
28935 H 78.98927767077609 87.88820996626441 4.982636253405573 H 0.0 **** 0.06
28936 C 87.52438669939875 43.63575267088811 101.86133488097603 C 0.0 **** -0.24
28937 H 87.87433137349575 42.85134504974013 102.53301896483828 H 0.0 **** 0.06
28938 H 87.96668773383857 44.588914819174505 102.15377948872786 H 0.0 **** 0.06
28939 H 86.43854184771882 43.705781347539755 101.9190320803663 H 0.0 **** 0.06
28940 H 87.81958923554583 43.396631644211766 100.83894761165686 H 0.0 **** 0.06
28941 C 120.50656736847606 32.8354420570452 87.46406763006189 C 0.0 **** -0.24
28942 H 119.66058506269553 32.783106583543656 86.78022122609326 H 0.0 **** 0.06
28943 H 120.50200541667786 33.79807597237394 87.97542484247174 H 0.0 **** 0.06
28944 H 121.4343627374598 32.72563100510443 86.90249541409855 H 0.0 **** 0.06
28945 H 120.4302055076196 32.03298586797905 88.19870635464144 H 0.0 **** 0.06
28946 C 2.366365966934694 15.889323922497908 136.0749349990056 C 0.0 **** -0.24
28947 H 3.3251971388397976 16.396980134439247 135.96963533718255 H 0.0 **** 0.06
28948 H 1.5602617785302755 16.58671303807523 135.8437887478398 H 0.0 **** 0.06
28949 H 2.2551034829397736 15.532151229076788 137.0980671145932 H 0.0 **** 0.06
28950 H 2.3246659332948525 15.044601130261753 135.38840203930448 H 0.0 **** 0.06
28951 C 93.25214698276712 113.51069092341427 83.1383083064647 C 0.0 **** -0.24
28952 H 94.30340776291618 113.7624572865748 83.28210532946686 H 0.0 **** 0.06
28953 H 92.68867063018801 114.41750126135832 82.91706521987541 H 0.0 **** 0.06
28954 H 92.86068721641661 113.05178111204094 84.04592776167512 H 0.0 **** 0.06
28955 H 93.15771975655312 112.81224985505293 82.30718761317488 H 0.0 **** 0.06
28956 C 50.962677437912646 28.604573319099416 98.18430047855304 C 0.0 **** -0.24
28957 H 49.90728064479487 28.86507054983548 98.11057246563007 H 0.0 **** 0.06
28958 H 51.49471550722626 28.996052585112466 97.31654786684112 H 0.0 **** 0.06
28959 H 51.06692231239276 27.519558125254548 98.21551174749914 H 0.0 **** 0.06
28960 H 51.38108883273057 29.035620972890115 99.09383326384119 H 0.0 **** 0.06
28961 C 56.357185276842955 124.5855410825159 107.86991589303358 C 0.0 **** -0.24
28962 H 56.815558071851626 124.64898713550251 106.8827416094808 H 0.0 **** 0.06
28963 H 55.83920807122763 123.63160874915272 107.96964445328811 H 0.0 **** 0.06
28964 H 55.64397568445179 125.40059500670425 107.99224427298674 H 0.0 **** 0.06
28965 H 57.12981472357504 124.66193890162006 108.63521726542412 H 0.0 **** 0.06
28966 C 42.04941410679595 82.42139493312172 107.71998006938291 C 0.0 **** -0.24
28967 H 41.10290887121107 81.89351731143441 107.60445471826765 H 0.0 **** 0.06
28968 H 42.3093319879909 82.47482684638214 108.77777581766057 H 0.0 **** 0.06
28969 H 41.95423099635872 83.43039653119199 107.31736975517539 H 0.0 **** 0.06
28970 H 42.83127270474665 81.8874398417752 107.17904273678472 H 0.0 **** 0.06
28971 C 64.1777716374761 41.98057879787572 76.95898997492009 C 0.0 **** -0.24
28972 H 63.27332956342701 42.5634832919889 76.7818544427372 H 0.0 **** 0.06
28973 H 63.95981220591227 41.177474192287775 77.66255142338935 H 0.0 **** 0.06
28974 H 64.95096110169214 42.626896751317844 77.37281379845535 H 0.0 **** 0.06
28975 H 64.52582761822578 41.55542549876276 76.0168080190287 H 0.0 **** 0.06
28976 C 55.8269515616591 132.78390682791294 128.74083581483154 C 0.0 **** -0.24
28977 H 56.14773037160441 133.60988681520342 129.3747869392186 H 0.0 **** 0.06
28978 H 56.03887407372757 133.02250161039294 127.6987900280451 H 0.0 **** 0.06
28979 H 54.75620403519618 132.6233968239538 128.86674584512747 H 0.0 **** 0.06
28980 H 56.3648735379503 131.8792687197183 129.02383031866708 H 0.0 **** 0.06
28981 C 40.925511774485884 42.49455899418052 20.263698008201402 C 0.0 **** -0.24
28982 H 40.713998721325346 43.44528215322367 20.75258730336526 H 0.0 **** 0.06
28983 H 41.801906762097296 42.03670706575076 20.72233566094303 H 0.0 **** 0.06
28984 H 41.11614925309866 42.6651725116414 19.204388130279256 H 0.0 **** 0.06
28985 H 40.06813713962782 41.82984285840621 20.375686043456028 H 0.0 **** 0.06
28986 C 83.85228641378137 21.55883738429256 87.14185549192202 C 0.0 **** -0.24
28987 H 84.9331892298241 21.465352862858822 87.04538928391291 H 0.0 **** 0.06
28988 H 83.52096847353447 21.035069124451724 88.03823223795803 H 0.0 **** 0.06
28989 H 83.37015772198832 21.123163661969414 86.26640736648179 H 0.0 **** 0.06
28990 H 83.58414456199073 22.612965230571547 87.21709858291797 H 0.0 **** 0.06
28991 C 0.9919311411873082 135.1041220898507 122.36722101569103 C 0.0 **** -0.24
28992 H 0.4649011643577978 135.47181390279178 123.24766533409581 H 0.0 **** 0.06
28993 H 0.29075690706690693 134.5833675921595 121.71426653157079 H 0.0 **** 0.06
28994 H 1.7798228240031335 134.41759813186087 122.67582363562366 H 0.0 **** 0.06
28995 H 1.4325095750473906 135.94431044792543 121.8303753821146 H 0.0 **** 0.06
28996 C 71.6451635362719 96.98212804164446 1.1960402151320828 C 0.0 **** -0.24
28997 H 71.40119037013955 97.88609850219302 1.7531250495737964 H 0.0 **** 0.06
28998 H 72.57581414707141 97.1336444363781 0.6490088684398714 H 0.0 **** 0.06
28999 H 70.84188685664051 96.76078654801509 0.49402487825764396 H 0.0 **** 0.06
29000 H 71.76207420458178 96.14873240234444 1.8885859923444812 H 0.0 **** 0.06
29001 C 39.738148335114715 52.013434260160466 54.41426331113911 C 0.0 **** -0.24
29002 H 39.73272098550743 53.078846093028204 54.184558669163266 H 0.0 **** 0.06
29003 H 39.47396876224508 51.44783719065893 53.52041254286621 H 0.0 **** 0.06
29004 H 39.01311828044828 51.80823176885389 55.20216713830747 H 0.0 **** 0.06
29005 H 40.731746776099214 51.719427001126434 54.75066020930636 H 0.0 **** 0.06
29006 C 52.64600469588032 39.08942924749192 96.47532662076492 C 0.0 **** -0.24
29007 H 52.076924148729915 40.0011500873527 96.6532042167943 H 0.0 **** 0.06
29008 H 52.74573473775331 38.92729918777479 95.40165261702593 H 0.0 **** 0.06
29009 H 52.125035193444944 38.242538423813016 96.92366894934638 H 0.0 **** 0.06
29010 H 53.63479514737713 39.18414861997056 96.92274889111602 H 0.0 **** 0.06
29011 C 104.37450665932187 63.81002442255584 77.51126504785158 C 0.0 **** -0.24
29012 H 104.49591139305136 63.6230292669336 76.44521829731896 H 0.0 **** 0.06
29013 H 105.20916409095318 63.36642691502402 78.05528742308314 H 0.0 **** 0.06
29014 H 103.44035626182526 63.36593732900121 77.85404006873604 H 0.0 **** 0.06
29015 H 104.35385363326412 64.8850798055642 77.69103839333717 H 0.0 **** 0.06
29016 C 18.13176360946622 30.63455745758479 27.827310726690513 C 0.0 **** -0.24
29017 H 18.767799465269093 30.710301513671425 26.94555663710588 H 0.0 **** 0.06
29018 H 18.04430032244221 29.58889829936396 28.12458538319538 H 0.0 **** 0.06
29019 H 17.143061771980086 31.031670525711917 27.59728909451826 H 0.0 **** 0.06
29020 H 18.57212861941639 31.209051570138314 28.643254542091086 H 0.0 **** 0.06
29021 C 113.39793229647356 15.524445151308399 17.012148878964695 C 0.0 **** -0.24
29022 H 114.20602114018169 16.1835540374161 17.329701971593977 H 0.0 **** 0.06
29023 H 113.81203822623488 14.565866502270538 16.698226354213148 H 0.0 **** 0.06
29024 H 112.86471278743028 15.980131562349818 16.177770119327647 H 0.0 **** 0.06
29025 H 112.70887061916108 15.369023992506996 17.842297257488326 H 0.0 **** 0.06
29026 C 92.14226747992696 64.80271091591504 86.05120640176253 C 0.0 **** -0.24
29027 H 92.33717265531818 65.46364204224358 86.89561807207582 H 0.0 **** 0.06
29028 H 92.76461414383007 63.91259828514714 86.13566428239216 H 0.0 **** 0.06
29029 H 92.37570371650374 65.32299662187677 85.12233215592005 H 0.0 **** 0.06
29030 H 91.09072551281955 64.51338325117064 86.05155017219835 H 0.0 **** 0.06
29031 C 127.30828359782481 34.77665596035473 67.85830712273204 C 0.0 **** -0.24
29032 H 128.1121150497853 35.17877000155616 67.24300615627311 H 0.0 **** 0.06
29033 H 126.69383909559014 35.595341968986304 68.2349824571856 H 0.0 **** 0.06
29034 H 127.73403213371 34.22575422627983 68.69680906862891 H 0.0 **** 0.06
29035 H 126.69251288842554 34.10611387366876 67.25885753601048 H 0.0 **** 0.06
29036 C 17.644170464208784 34.132764191874344 5.9493673166791154 C 0.0 **** -0.24
29037 H 16.6526406826855 33.907227984933684 5.557638911685956 H 0.0 **** 0.06
29038 H 18.36161095060453 33.41099552193381 5.558493662320416 H 0.0 **** 0.06
29039 H 17.626396688016143 34.074113332280035 7.037847106048446 H 0.0 **** 0.06
29040 H 17.935826936670594 35.13701732470264 5.643731654362398 H 0.0 **** 0.06
29041 C 35.79936758157422 107.14447665902341 5.2306243569428545 C 0.0 **** -0.24
29042 H 36.53890840843684 107.3939517089782 4.469019027641593 H 0.0 **** 0.06
29043 H 35.916154022163994 107.81408444197245 6.083377226814974 H 0.0 **** 0.06
29044 H 35.94404476382138 106.11374650092688 5.553799078947577 H 0.0 **** 0.06
29045 H 34.79770543000461 107.25738093663517 4.814305152468364 H 0.0 **** 0.06
29046 C 111.54044684315451 65.4032819763834 54.83197388380921 C 0.0 **** -0.24
29047 H 110.96092686287085 64.8110603833737 54.12310839342564 H 0.0 **** 0.06
29048 H 112.15398743785158 66.12240073652782 54.28734253516032 H 0.0 **** 0.06
29049 H 112.18366263655025 64.74362198663124 55.41370592284818 H 0.0 **** 0.06
29050 H 110.86409382328375 65.93424663366596 55.50057848190539 H 0.0 **** 0.06
29051 C 31.924396230969194 114.46797825189014 19.185782244378316 C 0.0 **** -0.24
29052 H 31.416837044439262 114.92930973857551 20.033335207462528 H 0.0 **** 0.06
29053 H 32.852304740617114 114.00842369723418 19.52508511073185 H 0.0 **** 0.06
29054 H 32.14737874334679 115.2293961919334 18.438695529795083 H 0.0 **** 0.06
29055 H 31.279763554941724 113.70668246009171 18.74818148638753 H 0.0 **** 0.06
29056 C 100.13360038738233 114.16220209163171 77.46950270525379 C 0.0 **** -0.24
29057 H 99.09136452314283 114.29641677367937 77.17842895937213 H 0.0 **** 0.06
29058 H 100.63882402219826 115.12789749702381 77.46329679645756 H 0.0 **** 0.06
29059 H 100.62458310369175 113.49088221976507 76.76386913488118 H 0.0 **** 0.06
29060 H 100.17948464780875 113.7337125546508 78.46997276769072 H 0.0 **** 0.06
29061 C 117.13700848223269 10.47097774428434 64.31837654977676 C 0.0 **** -0.24
29062 H 116.70170173750364 9.47797051685734 64.4310431061084 H 0.0 **** 0.06
29063 H 116.47567740907778 11.089841593625906 63.711666713425416 H 0.0 **** 0.06
29064 H 118.10773657147973 10.389609351176745 63.830083411408395 H 0.0 **** 0.06
29065 H 117.26161584533438 10.926861844379516 65.3011195489006 H 0.0 **** 0.06
29066 C 84.54357994611762 23.842813913671705 76.26788504702401 C 0.0 **** -0.24
29067 H 85.5490631475861 23.956948534084006 76.67369523635774 H 0.0 **** 0.06
29068 H 84.06494236011332 24.821150429841694 76.20380004029793 H 0.0 **** 0.06
29069 H 83.95980637394179 23.19416290166987 76.92094579416813 H 0.0 **** 0.06
29070 H 84.60155437040895 23.400520363082848 75.27385718246687 H 0.0 **** 0.06
29071 C 96.66363299737337 133.07797600216475 63.69946357444333 C 0.0 **** -0.24
29072 H 96.31829431069 134.0904740025974 63.48569700700273 H 0.0 **** 0.06
29073 H 97.11264911883097 132.65177576267308 62.80173088004072 H 0.0 **** 0.06
29074 H 95.81815354473272 132.4641293405804 64.01045046295668 H 0.0 **** 0.06
29075 H 97.40489063355072 133.10848480643435 64.49775260165734 H 0.0 **** 0.06
29076 C 33.245764011365736 76.92157267942727 43.84948493571366 C 0.0 **** -0.24
29077 H 33.4101941011931 75.89404893672332 43.52453142965979 H 0.0 **** 0.06
29078 H 32.76546944424858 76.9209486594043 44.82805164743664 H 0.0 **** 0.06
29079 H 32.604037683128354 77.43184086277643 43.13033764843681 H 0.0 **** 0.06
29080 H 34.20202317058454 77.43968939262786 43.913238366487235 H 0.0 **** 0.06
29081 C 53.4289303364784 56.156723985717136 48.11821003485079 C 0.0 **** -0.24
29082 H 53.42157170383285 55.869434354682326 47.066751722473725 H 0.0 **** 0.06
29083 H 52.68640611990651 55.56956961445373 48.65943608410868 H 0.0 **** 0.06
29084 H 53.18951289691236 57.21656773836631 48.206502642409646 H 0.0 **** 0.06
29085 H 54.41681089553856 55.97113370731172 48.539175931912695 H 0.0 **** 0.06
29086 C 77.7009198955004 92.57890598151391 82.05052318564891 C 0.0 **** -0.24
29087 H 78.73465290807535 92.31778836252644 81.82522186768668 H 0.0 **** 0.06
29088 H 77.68112442455667 93.36088448459238 82.80980299911633 H 0.0 **** 0.06
29089 H 77.17673525797085 91.69781590751774 82.42205899370208 H 0.0 **** 0.06
29090 H 77.21194425041772 92.93854092631793 81.14521573354405 H 0.0 **** 0.06
29091 C 91.6265549269057 115.7402238252898 90.83105837073126 C 0.0 **** -0.24
29092 H 91.0394760701364 116.07061328364088 89.97409962727923 H 0.0 **** 0.06
29093 H 91.53578053732974 116.47000190518037 91.63630372383568 H 0.0 **** 0.06
29094 H 92.67292344557089 115.6468966978511 90.54092216624699 H 0.0 **** 0.06
29095 H 91.25582570561909 114.77362986510857 91.17271322523285 H 0.0 **** 0.06
29096 C 33.72955884008178 105.53101383790889 30.05863597696124 C 0.0 **** -0.24
29097 H 33.89665269890355 104.86623734416939 30.905618194598397 H 0.0 **** 0.06
29098 H 34.374101908860496 105.2341915157685 29.23108608952765 H 0.0 **** 0.06
29099 H 33.96052829927055 106.55550233142625 30.350977405110285 H 0.0 **** 0.06
29100 H 32.68608011208522 105.46812469000645 29.74735116327173 H 0.0 **** 0.06
29101 C 73.20155332871497 83.70660133238607 105.4158820783806 C 0.0 **** -0.24
29102 H 72.24169840592612 84.22216209854508 105.38047447723869 H 0.0 **** 0.06
29103 H 74.00615686349352 84.42845740830381 105.27685328659169 H 0.0 **** 0.06
29104 H 73.24138724678261 82.95959766363723 104.62338992163819 H 0.0 **** 0.06
29105 H 73.31400968075206 83.21658496450206 106.38308402027917 H 0.0 **** 0.06
29106 C 65.74375698898702 53.73470423770098 68.12274149268733 C 0.0 **** -0.24
29107 H 66.39178380940643 53.38887346842591 67.31700306677205 H 0.0 **** 0.06
29108 H 64.82596820057431 54.14568141358919 67.69991451680545 H 0.0 **** 0.06
29109 H 66.25756687741102 54.506403515725026 68.69559807627503 H 0.0 **** 0.06
29110 H 65.50035720572151 52.89800396716694 68.77770276872394 H 0.0 **** 0.06
29111 C 46.77156541898624 98.70082679211677 40.06298055199363 C 0.0 **** -0.24
29112 H 47.81013092150654 98.46414575204001 39.83052223199289 H 0.0 **** 0.06
29113 H 46.2063608680529 97.77554373851963 40.1814677649206 H 0.0 **** 0.06
29114 H 46.34241909751428 99.2890497130326 39.2525539734778 H 0.0 **** 0.06
29115 H 46.72917835725386 99.27371243805864 40.99052922417863 H 0.0 **** 0.06
29116 C 36.88471949283927 58.030873116044944 127.48503029777513 C 0.0 **** -0.24
29117 H 36.676064180717106 57.218557135556296 126.7896378059391 H 0.0 **** 0.06
29118 H 35.96740428641975 58.31065645349304 128.00223540057607 H 0.0 **** 0.06
29119 H 37.26898884788952 58.890992143171786 126.93523446309638 H 0.0 **** 0.06
29120 H 37.62707855817396 57.704519918844284 128.21279786444083 H 0.0 **** 0.06
29121 C 99.40501130937973 32.99024483972653 66.4213562603602 C 0.0 **** -0.24
29122 H 98.41364252481334 33.25146559631855 66.0511891227668 H 0.0 **** 0.06
29123 H 99.77612459652103 32.117930210058375 65.88272539578304 H 0.0 **** 0.06
29124 H 99.34699252911165 32.76260865219916 67.48622136748395 H 0.0 **** 0.06
29125 H 100.08271957212447 33.82900364236036 66.26658487669931 H 0.0 **** 0.06
29126 C 66.56548558328998 112.71822722811444 96.25630529305977 C 0.0 **** -0.24
29127 H 66.04160985723937 113.0573900446837 97.1496897828959 H 0.0 **** 0.06
29128 H 66.50842842791707 113.48926597884557 95.48745171510285 H 0.0 **** 0.06
29129 H 66.10051315869276 111.80305111434069 95.88853712071062 H 0.0 **** 0.06
29130 H 67.60903680994466 112.52252874022858 96.49946763244478 H 0.0 **** 0.06
29131 C 136.89807564952162 54.30826555818385 45.761364550784165 C 0.0 **** -0.24
29132 H 136.8370781096021 55.39186441026965 45.66299348945816 H 0.0 **** 0.06
29133 H 135.92217124859656 53.86936190702107 45.55188833651317 H 0.0 **** 0.06
29134 H 137.20142213134181 54.05227144740985 46.776348280927635 H 0.0 **** 0.06
29135 H 137.63163110854595 53.919564468034935 45.05422809623772 H 0.0 **** 0.06
29136 C 69.65271934937994 123.72635682631872 7.8185252874944595 C 0.0 **** -0.24
29137 H 68.8979941235645 124.34045405029924 8.309454485986098 H 0.0 **** 0.06
29138 H 70.367619551648 123.36798171087031 8.559996861154794 H 0.0 **** 0.06
29139 H 70.17447180661281 124.32148854307755 7.069308591332401 H 0.0 **** 0.06
29140 H 69.17187408563481 122.87569797174447 7.336679506568853 H 0.0 **** 0.06
29141 C 30.928621910823885 107.93129540440981 111.61653776791033 C 0.0 **** -0.24
29142 H 30.63063231038482 107.38222418979717 110.72320016561994 H 0.0 **** 0.06
29143 H 31.954100617544427 107.67101621168126 111.8778770201827 H 0.0 **** 0.06
29144 H 30.266058907824856 107.66878371423115 112.4412649593192 H 0.0 **** 0.06
29145 H 30.86210679518301 109.00173137059713 111.42260831533125 H 0.0 **** 0.06
29146 C 62.561873003125214 74.83130265581299 94.40566858412019 C 0.0 **** -0.24
29147 H 63.43695004904744 74.26797674700985 94.08241462478263 H 0.0 **** 0.06
29148 H 62.8831574568935 75.74571398768532 94.9055058866975 H 0.0 **** 0.06
29149 H 61.97585149442749 74.22596127407421 95.09825051491737 H 0.0 **** 0.06
29150 H 61.9519835207101 75.08492081968119 93.5388250632769 H 0.0 **** 0.06
29151 C 10.297200673538725 15.4879410842085 130.00506108387697 C 0.0 **** -0.24
29152 H 11.286412516114751 15.454893116802339 130.4619120830562 H 0.0 **** 0.06
29153 H 9.71362612810475 16.28849051763939 130.46147043158211 H 0.0 **** 0.06
29154 H 9.7916604379663 14.53523329404743 130.16134600820993 H 0.0 **** 0.06
29155 H 10.398101283647975 15.675341907201869 128.93595067363404 H 0.0 **** 0.06
29156 C 83.61067016493048 109.65612141649655 99.27853693208766 C 0.0 **** -0.24
29157 H 83.93447233985606 109.34337732313696 100.2702956019308 H 0.0 **** 0.06
29158 H 82.60605363318876 110.07708575249538 99.34021200187027 H 0.0 **** 0.06
29159 H 83.60323656136093 108.79518847955012 98.61015958641138 H 0.0 **** 0.06
29160 H 84.29700731773687 110.41005236313998 98.89255050925738 H 0.0 **** 0.06
29161 C 29.045133788119585 8.478449387496262 104.88578264432833 C 0.0 **** -0.24
29162 H 28.481738683223227 7.630061241399012 104.49891766435661 H 0.0 **** 0.06
29163 H 29.470713014437138 9.040995967877173 104.05330150659621 H 0.0 **** 0.06
29164 H 29.847364715543563 8.119419711079367 105.52916450160579 H 0.0 **** 0.06
29165 H 28.380412321711674 9.124539911453152 105.45902295959554 H 0.0 **** 0.06
29166 C 93.00032218124464 57.466717976779705 76.19240421385048 C 0.0 **** -0.24
29167 H 93.24152151392481 56.53503830258521 76.70351662590586 H 0.0 **** 0.06
29168 H 92.38831070913203 57.250896492546985 75.31597272145453 H 0.0 **** 0.06
29169 H 93.9204717429701 57.96047929572603 75.88060686484923 H 0.0 **** 0.06
29170 H 92.44861513705519 58.119876920541 76.86930217051736 H 0.0 **** 0.06
29171 C 72.11540621015286 27.25556518801858 98.52506499606923 C 0.0 **** -0.24
29172 H 72.02360756845968 28.310315812041665 98.26490501483745 H 0.0 **** 0.06
29173 H 71.22946706656631 26.719387001249117 98.18528589888065 H 0.0 **** 0.06
29174 H 72.20862538450262 27.155620643124905 99.60650863297576 H 0.0 **** 0.06
29175 H 73.00054859580172 26.83903907135891 98.04400052364171 H 0.0 **** 0.06
29176 C 44.03536154499551 22.884305770102316 106.93092704735301 C 0.0 **** -0.24
29177 H 43.21709492401493 22.721054121704313 106.22957285834457 H 0.0 **** 0.06
29178 H 44.9684290546584 23.00292671328768 106.37928749354211 H 0.0 **** 0.06
29179 H 44.11551094257959 22.02861841300036 107.60154563826228 H 0.0 **** 0.06
29180 H 43.83954873726765 23.785470044855074 107.51256730203866 H 0.0 **** 0.06
29181 C 86.31248979748162 122.82463661745732 73.10375600873013 C 0.0 **** -0.24
29182 H 85.30436334791347 123.11193035286351 72.80482551782664 H 0.0 **** 0.06
29183 H 86.98586590511022 122.92623056472848 72.25326185660141 H 0.0 **** 0.06
29184 H 86.30890710998273 121.78881473875958 73.44399899504896 H 0.0 **** 0.06
29185 H 86.64905614878398 123.47283729031136 73.91346218095865 H 0.0 **** 0.06
29186 C 48.00801931657601 33.12371878914242 87.54364860636288 C 0.0 **** -0.24
29187 H 47.147927191185204 33.68937051321519 87.90086099210737 H 0.0 **** 0.06
29188 H 47.76783808922467 32.66370328083599 86.58417799471655 H 0.0 **** 0.06
29189 H 48.25828069110558 32.34776237325857 88.2659711604493 H 0.0 **** 0.06
29190 H 48.8582750732527 33.7944919774317 87.42226690713355 H 0.0 **** 0.06
29191 C 90.92229444291374 80.5539882879836 98.71467082104556 C 0.0 **** -0.24
29192 H 91.96464535424167 80.24122145006524 98.64202363372505 H 0.0 **** 0.06
29193 H 90.56153726487554 80.84706490780468 97.7284404004585 H 0.0 **** 0.06
29194 H 90.84456075895883 81.40012372735612 99.39722216960305 H 0.0 **** 0.06
29195 H 90.32113642683208 79.72672744477475 99.09118187198717 H 0.0 **** 0.06
29196 C 83.38878112641339 97.89425121184219 90.9360658712622 C 0.0 **** -0.24
29197 H 84.44567198864752 98.0944810590902 90.7600863998384 H 0.0 **** 0.06
29198 H 82.89344748661603 97.6942582723132 89.98553575265157 H 0.0 **** 0.06
29199 H 82.92957811751563 98.76248980861966 91.40937171988895 H 0.0 **** 0.06
29200 H 83.28715129845958 97.02788612204661 91.5891224833183 H 0.0 **** 0.06
29201 C 25.524066274896427 20.83176581684083 30.265297737922538 C 0.0 **** -0.24
29202 H 25.488677224463913 19.795353424229347 30.601602730470518 H 0.0 **** 0.06
29203 H 24.517914027879954 21.25100415000736 30.27549295859521 H 0.0 **** 0.06
29204 H 25.92487358876997 20.871559850576972 29.252431016627654 H 0.0 **** 0.06
29205 H 26.164989049894302 21.407381914206468 30.932587880114966 H 0.0 **** 0.06
29206 C 74.85039017140619 115.02641589837262 119.8423979942398 C 0.0 **** -0.24
29207 H 74.70538903943779 115.25287200039205 118.78684302487298 H 0.0 **** 0.06
29208 H 73.88029502170993 114.96035554013511 120.33634996893853 H 0.0 **** 0.06
29209 H 75.4409607164184 115.81665665320503 120.30610269624422 H 0.0 **** 0.06
29210 H 75.37417963191965 114.07568648471587 119.9415001793138 H 0.0 **** 0.06
29211 C 61.563656728334905 116.37811439066365 10.210135823482084 C 0.0 **** -0.24
29212 H 60.88656622903767 117.21132572979408 10.017344580268169 H 0.0 **** 0.06
29213 H 61.496304203073265 116.0913016883733 11.258967132472591 H 0.0 **** 0.06
29214 H 62.58516598239149 116.68007546555876 9.979438175454323 H 0.0 **** 0.06
29215 H 61.284750833399016 115.53115893216363 9.582638372695744 H 0.0 **** 0.06
29216 C 30.972513381546094 104.87056381153772 15.659939306860679 C 0.0 **** -0.24
29217 H 31.946587511094805 104.54263239574696 16.02115611140465 H 0.0 **** 0.06
29218 H 30.74635283619787 104.36910815190484 14.719184998406718 H 0.0 **** 0.06
29219 H 30.98776636159681 105.94953970900842 15.502527515696954 H 0.0 **** 0.06
29220 H 30.20923899020029 104.62156083106805 16.397691851154946 H 0.0 **** 0.06
29221 C 104.22091545436658 83.6290770230539 55.60070417021706 C 0.0 **** -0.24
29222 H 104.06425014921871 84.45956229509162 56.28987055637583 H 0.0 **** 0.06
29223 H 105.28362580505124 83.39178239071977 55.5547257542442 H 0.0 **** 0.06
29224 H 103.8670724282641 83.90904052764867 54.60917174674296 H 0.0 **** 0.06
29225 H 103.66787341372884 82.75734927258131 55.95174310462363 H 0.0 **** 0.06
29226 C 127.32424990250166 49.578144578636966 134.00975413445212 C 0.0 **** -0.24
29227 H 127.35729222272235 48.82673302369915 133.22035374344148 H 0.0 **** 0.06
29228 H 127.00335069527424 50.53147133276073 133.58927716242889 H 0.0 **** 0.06
29229 H 128.3165715046705 49.68858976072909 134.44799584975684 H 0.0 **** 0.06
29230 H 126.61975795928598 49.26458824727729 134.77950055118237 H 0.0 **** 0.06
29231 C 26.053961897471652 76.9140835294021 129.02833251619342 C 0.0 **** -0.24
29232 H 25.978095082396862 77.27660401684696 128.00318463197198 H 0.0 **** 0.06
29233 H 25.062362472056293 76.89881180263794 129.48130761806374 H 0.0 **** 0.06
29234 H 26.70425787275485 77.57595616386435 129.60001670114826 H 0.0 **** 0.06
29235 H 26.46955339216038 75.90674111891273 129.0282354726325 H 0.0 **** 0.06
29236 C 89.6628072942876 86.66479305732183 23.678230281800182 C 0.0 **** -0.24
29237 H 89.17041772197376 85.79431379817119 24.111588591618357 H 0.0 **** 0.06
29238 H 88.92900995380916 87.26712895782701 23.14302754480542 H 0.0 **** 0.06
29239 H 90.43770248649076 86.33519342465469 22.98657028092819 H 0.0 **** 0.06
29240 H 90.11303396130438 87.26033456087264 24.47187395998418 H 0.0 **** 0.06
29241 C 41.12241548754207 108.56983383414459 47.73111375847833 C 0.0 **** -0.24
29242 H 40.99538858500017 108.84409001392206 46.68364452446667 H 0.0 **** 0.06
29243 H 41.76951956396861 109.29718747173914 48.22181742057626 H 0.0 **** 0.06
29244 H 41.574176839915296 107.5798800909776 47.79510854650198 H 0.0 **** 0.06
29245 H 40.149688326216975 108.55772405275461 48.22395180196804 H 0.0 **** 0.06
29246 C 67.18752714493571 21.336240298687052 39.1402188921046 C 0.0 **** -0.24
29247 H 67.65011378781168 21.278131201406786 40.12516760344647 H 0.0 **** 0.06
29248 H 67.88627177265441 20.970442612228233 38.388051326983145 H 0.0 **** 0.06
29249 H 66.92735993359369 22.37162505037557 38.92161543408383 H 0.0 **** 0.06
29250 H 66.28499054850543 20.724654778560144 39.126364726575616 H 0.0 **** 0.06
29251 C 117.31000885729696 84.88652577149344 109.22026361248196 C 0.0 **** -0.24
29252 H 117.4431316705899 84.1714426225796 108.40797086670547 H 0.0 **** 0.06
29253 H 117.31362980852924 85.89866476896124 108.81775830352608 H 0.0 **** 0.06
29254 H 118.12513352947539 84.7762403333344 109.936780213916 H 0.0 **** 0.06
29255 H 116.36033735385172 84.6963327261177 109.71922318224273 H 0.0 **** 0.06
29256 C 89.04486179125944 132.23041371980554 75.2090343335 C 0.0 **** -0.24
29257 H 90.08134161384211 132.50485291505018 75.40643947348268 H 0.0 **** 0.06
29258 H 89.01224562189363 131.2409573346976 74.75194533587532 H 0.0 **** 0.06
29259 H 88.5992167430972 132.95849483626301 74.53234358309679 H 0.0 **** 0.06
29260 H 88.48826407623058 132.21569928566373 76.14621443421306 H 0.0 **** 0.06
29261 C 109.12011988591956 125.9936768506831 91.32940732781559 C 0.0 **** -0.24
29262 H 108.89596632699083 125.03884272717856 91.80445155533835 H 0.0 **** 0.06
29263 H 108.3229216557861 126.24763491571096 90.63033696404239 H 0.0 **** 0.06
29264 H 110.06509657288203 125.91818520112281 90.79253855573312 H 0.0 **** 0.06
29265 H 109.19663792881552 126.7687338335086 92.09142549319304 H 0.0 **** 0.06
29266 C 5.832559297030084 118.0707194212018 109.90421625242652 C 0.0 **** -0.24
29267 H 5.997294500553668 119.10035999638642 110.22393757820521 H 0.0 **** 0.06
29268 H 5.704541821952315 117.43515693080101 110.78122250782644 H 0.0 **** 0.06
29269 H 6.690808153001434 117.72789887552099 109.3279325121647 H 0.0 **** 0.06
29270 H 4.935836198959709 118.02186381502122 109.28523729643075 H 0.0 **** 0.06
29271 C 129.3454899955875 10.290686560065808 26.777442891376637 C 0.0 **** -0.24
29272 H 128.29698150607294 10.566200173924813 26.65931029535713 H 0.0 **** 0.06
29273 H 129.76320542348475 10.024905676337369 25.80664353999674 H 0.0 **** 0.06
29274 H 129.42226372792004 9.439151312205865 27.452852052522644 H 0.0 **** 0.06
29275 H 129.8972859611394 11.13405374050285 27.191745969303042 H 0.0 **** 0.06
29276 C 96.55244282451287 20.608476113202983 80.98287107052306 C 0.0 **** -0.24
29277 H 96.961686819751 21.58628996158859 81.23593720975316 H 0.0 **** 0.06
29278 H 96.52345819930657 19.985010154551617 81.87670504261831 H 0.0 **** 0.06
29279 H 97.18210574198913 20.135298066136443 80.22976338758579 H 0.0 **** 0.06
29280 H 95.54226527484384 20.728245523472026 80.58930818841964 H 0.0 **** 0.06
29281 C 21.05508463246511 111.35858749443727 38.356033870731295 C 0.0 **** -0.24
29282 H 21.086287731687804 110.27029599365176 38.31465767418709 H 0.0 **** 0.06
29283 H 20.024762234292268 111.68630859364123 38.5047175498641 H 0.0 **** 0.06
29284 H 21.436145367239703 111.76928932386423 37.42137416990349 H 0.0 **** 0.06
29285 H 21.67083866908436 111.70884170830803 39.18412141970444 H 0.0 **** 0.06
29286 C 39.31801771586407 69.43268377863123 94.45000473599421 C 0.0 **** -0.24
29287 H 39.59251191480121 69.56913361806741 95.49591028994978 H 0.0 **** 0.06
29288 H 39.96476084823519 70.04418192150105 93.8214227065992 H 0.0 **** 0.06
29289 H 38.280374433448685 69.73301350637796 94.30549342076678 H 0.0 **** 0.06
29290 H 39.43242212967499 68.38316739546123 94.17905262194841 H 0.0 **** 0.06
29291 C 100.07204222313128 125.71732572832502 32.318617998362015 C 0.0 **** -0.24
29292 H 100.98132355120141 125.7326637065488 32.918815662374584 H 0.0 **** 0.06
29293 H 99.74873710352608 126.73950483593671 32.12233064701189 H 0.0 **** 0.06
29294 H 99.28919165968293 125.18547872912285 32.8589741845895 H 0.0 **** 0.06
29295 H 100.26971974076206 125.21075062971073 31.373619395811943 H 0.0 **** 0.06
29296 C 31.882082041168267 47.77832341145478 44.891919870990165 C 0.0 **** -0.24
29297 H 31.485716767985146 46.87994060942913 45.363580666780294 H 0.0 **** 0.06
29298 H 32.09371275065769 48.52720897171997 45.65624375608452 H 0.0 **** 0.06
29299 H 31.149091055596706 48.17444748728724 44.18893053499862 H 0.0 **** 0.06
29300 H 32.80114490219749 47.53373292968993 44.35917976050709 H 0.0 **** 0.06
29301 C 105.96384086033322 106.31565076989986 97.0307077198741 C 0.0 **** -0.24
29302 H 105.63846464231958 106.51725884428807 96.01016641295737 H 0.0 **** 0.06
29303 H 106.60560731421623 107.12748059396895 97.37385818865891 H 0.0 **** 0.06
29304 H 106.51787201894126 105.37736384865984 97.05644068692945 H 0.0 **** 0.06
29305 H 105.0915854864086 106.24172830287566 97.68130372458822 H 0.0 **** 0.06
29306 C 44.769576263285096 133.09434488229982 120.9777828645698 C 0.0 **** -0.24
29307 H 45.31743353831752 133.33482635983341 121.88867369688933 H 0.0 **** 0.06
29308 H 44.670744120828 133.9906418867571 120.36492971968363 H 0.0 **** 0.06
29309 H 43.77940651970384 132.72009717769038 121.23727387376891 H 0.0 **** 0.06
29310 H 45.31087060870687 132.3301970927016 120.41871693574006 H 0.0 **** 0.06
29311 C 104.18508331762496 110.82976567391933 59.78654289145612 C 0.0 **** -0.24
29312 H 104.94973297277 110.13487415304013 60.13258436892522 H 0.0 **** 0.06
29313 H 103.88004470455007 110.56027307892634 58.77498553487209 H 0.0 **** 0.06
29314 H 104.5875989644897 111.84260329017593 59.7880152320306 H 0.0 **** 0.06
29315 H 103.32229257723094 110.78061398850207 60.45085404850471 H 0.0 **** 0.06
29316 C 132.39319196850136 95.26332806859648 63.67959378182411 C 0.0 **** -0.24
29317 H 132.8230425542807 95.68310614837469 62.77040080066104 H 0.0 **** 0.06
29318 H 133.09901091873246 94.56098207756554 64.12369152737091 H 0.0 **** 0.06
29319 H 131.46682974700184 94.74255070448515 63.43587660217253 H 0.0 **** 0.06
29320 H 132.1841936771958 96.0661125379761 64.38604181992565 H 0.0 **** 0.06
29321 C 101.44986754809065 21.530350615176673 11.785240912657493 C 0.0 **** -0.24
29322 H 102.33103388294418 21.051219051845408 12.210938994895454 H 0.0 **** 0.06
29323 H 101.08739176672975 22.297387044100077 12.470601072741559 H 0.0 **** 0.06
29324 H 100.67137759293516 20.784441369999186 11.628930989908842 H 0.0 **** 0.06
29325 H 101.71164702251906 21.989064758783186 10.831747911751588 H 0.0 **** 0.06
29326 C 29.908787762917143 70.49340483145954 77.22939569841714 C 0.0 **** -0.24
29327 H 29.510916275614534 70.32577424217749 76.22826416205477 H 0.0 **** 0.06
29328 H 29.463014503714334 69.77818711920395 77.92130893620643 H 0.0 **** 0.06
29329 H 29.670483842482838 71.50788479686241 77.55020052835661 H 0.0 **** 0.06
29330 H 30.990771129365726 70.3611632102355 77.21701746362682 H 0.0 **** 0.06
29331 C 42.733428564009756 6.086211678023027 86.27352089416473 C 0.0 **** -0.24
29332 H 43.48102412453517 6.050840399666278 87.06589126697017 H 0.0 **** 0.06
29333 H 42.470020123389475 5.0697775950729635 85.97769848163806 H 0.0 **** 0.06
29334 H 43.13944004607583 6.621496225755138 85.41499937049309 H 0.0 **** 0.06
29335 H 41.8434327152105 6.601218394673413 86.63631087699287 H 0.0 **** 0.06
29336 C 47.735457662120226 81.17000680670753 75.68048000876504 C 0.0 **** -0.24
29337 H 46.76459129638674 81.02863773734555 76.15642684805454 H 0.0 **** 0.06
29338 H 47.71814821338832 80.72735193527899 74.68446087307825 H 0.0 **** 0.06
29339 H 48.50713995980897 80.68716689051774 76.2792179003798 H 0.0 **** 0.06
29340 H 47.94982151560072 82.23566548230383 75.6017032822956 H 0.0 **** 0.06
29341 C 79.44715960962748 57.660262485893995 17.843221832467307 C 0.0 **** -0.24
29342 H 79.41233688758962 57.34659990990549 16.799337603545652 H 0.0 **** 0.06
29343 H 80.43680675072903 58.05778573922278 18.06942502388189 H 0.0 **** 0.06
29344 H 79.24241725011166 56.804778595889005 18.485821145642653 H 0.0 **** 0.06
29345 H 78.69693689226477 58.432459075619064 18.015196803253872 H 0.0 **** 0.06
29346 C 39.21520109923584 130.74201923678902 15.878084566833934 C 0.0 **** -0.24
29347 H 39.804068700095335 129.96467591284105 16.364396545458476 H 0.0 **** 0.06
29348 H 39.10847054957688 131.59214042796097 16.55211247889838 H 0.0 **** 0.06
29349 H 38.22907831743147 130.3494700600891 15.629947376858695 H 0.0 **** 0.06
29350 H 39.71918682983993 131.06179054626458 14.965881866120185 H 0.0 **** 0.06
29351 C 77.1795615459298 41.95631987702728 10.462144234894708 C 0.0 **** -0.24
29352 H 76.49411512285224 41.13051542684917 10.650365466352525 H 0.0 **** 0.06
29353 H 77.07352107380945 42.70401236874727 11.248576971152488 H 0.0 **** 0.06
29354 H 76.94800211892755 42.40800562903729 9.497020242099552 H 0.0 **** 0.06
29355 H 78.20416866887513 41.58260833432075 10.451371234797591 H 0.0 **** 0.06
29356 C 117.81640528955816 133.47209563130232 71.09276028290807 C 0.0 **** -0.24
29357 H 118.85956660699375 133.37121158579507 71.39171332275865 H 0.0 **** 0.06
29358 H 117.39499566762697 134.37114217305356 71.54408984778276 H 0.0 **** 0.06
29359 H 117.25650077083574 132.60016895668673 71.42940819767824 H 0.0 **** 0.06
29360 H 117.75575919999412 133.54680303690967 70.00746314750982 H 0.0 **** 0.06
29361 C 87.5204148885075 14.598167743854447 34.03982902615945 C 0.0 **** -0.24
29362 H 88.22361140871698 14.758380526210459 33.22288805252812 H 0.0 **** 0.06
29363 H 87.83546883725666 13.734016863459374 34.62546147732648 H 0.0 **** 0.06
29364 H 86.52530301490475 14.420356614413137 33.6338591294886 H 0.0 **** 0.06
29365 H 87.49881144644496 15.482129012356836 34.678430546198314 H 0.0 **** 0.06
29366 C 117.96697130057723 122.00565780785354 40.962897147695635 C 0.0 **** -0.24
29367 H 118.51613135781969 121.37106329643838 41.6580043838356 H 0.0 **** 0.06
29368 H 117.69485132667765 122.93833251965756 41.460243919192166 H 0.0 **** 0.06
29369 H 117.06362030444251 121.49118588320279 40.63646240621139 H 0.0 **** 0.06
29370 H 118.59401306900023 122.2238096899351 40.09841670335763 H 0.0 **** 0.06
29371 C 88.08158612670275 61.39159055338888 101.94024971561402 C 0.0 **** -0.24
29372 H 88.34774133869185 62.05817655709404 101.12036647310337 H 0.0 **** 0.06
29373 H 88.17270791463503 61.92515078452266 102.88613519610648 H 0.0 **** 0.06
29374 H 88.75200727637272 60.53223032495896 101.94098139160424 H 0.0 **** 0.06
29375 H 87.05405592736813 61.05037236203066 101.81217972470766 H 0.0 **** 0.06
29376 C 126.44136395147314 59.8542112117334 69.084924742832 C 0.0 **** -0.24
29377 H 126.76883977075715 60.869019043326546 68.85918438002221 H 0.0 **** 0.06
29378 H 125.56558020306625 59.61328833084664 68.48250209513033 H 0.0 **** 0.06
29379 H 126.18610078825714 59.78283225615502 70.1426614153945 H 0.0 **** 0.06
29380 H 127.24407832039901 59.154530307143915 68.85686283415139 H 0.0 **** 0.06
29381 C 60.40002446790112 73.38943147483482 84.84548076910562 C 0.0 **** -0.24
29382 H 60.93074057374406 72.54961382145063 84.3977903041277 H 0.0 **** 0.06
29383 H 59.45464156920258 73.03947648152729 85.26218548568058 H 0.0 **** 0.06
29384 H 60.204055487431674 74.14276018042884 84.0832793362519 H 0.0 **** 0.06
29385 H 61.00885733111494 73.82272020974713 85.63777641353725 H 0.0 **** 0.06
29386 C 57.796326294279055 132.53156896224186 59.2913650447544 C 0.0 **** -0.24
29387 H 58.44920268568282 133.3515187104857 59.590907860547176 H 0.0 **** 0.06
29388 H 58.313397031778905 131.90329966413364 58.564910171430256 H 0.0 **** 0.06
29389 H 56.88924869386433 132.9348839279153 58.84169037720544 H 0.0 **** 0.06
29390 H 57.534625851407455 131.93685580635386 60.166353723044764 H 0.0 **** 0.06
29391 C 108.68604119687066 26.326255589920436 4.357341395684955 C 0.0 **** -0.24
29392 H 109.03468410102153 26.907504659066348 3.5033983467131584 H 0.0 **** 0.06
29393 H 108.44010903256779 26.99969089736112 5.17897170436013 H 0.0 **** 0.06
29394 H 109.46928674103539 25.637723669733788 4.6722099538370365 H 0.0 **** 0.06
29395 H 107.79778017890196 25.760568212803776 4.072922161673507 H 0.0 **** 0.06
29396 C 67.58552884758426 19.27860038913684 51.39841171185337 C 0.0 **** -0.24
29397 H 67.62121592221376 19.47567635730644 52.469918857746976 H 0.0 **** 0.06
29398 H 67.97851862602428 20.13983518553607 50.857370347485144 H 0.0 **** 0.06
29399 H 66.5538791324981 19.099474172335476 51.09620531258588 H 0.0 **** 0.06
29400 H 68.188982521216 18.40039759839354 51.17104958431359 H 0.0 **** 0.06
29401 C 111.11773911662888 17.222834083655812 35.38732637170665 C 0.0 **** -0.24
29402 H 110.78538019231215 18.141081381047428 34.90302118666173 H 0.0 **** 0.06
29403 H 111.05618459761362 16.39654117425681 34.67897607666211 H 0.0 **** 0.06
29404 H 110.48021996207342 17.01375880322567 36.24590011867164 H 0.0 **** 0.06
29405 H 112.14904766837881 17.340681728586674 35.72020123447268 H 0.0 **** 0.06
29406 C 69.50281201728957 18.99827460769859 83.46938660713712 C 0.0 **** -0.24
29407 H 69.12154465539233 18.2922733015522 84.20601632322717 H 0.0 **** 0.06
29408 H 69.02074569336337 19.965748391941815 83.60949939885147 H 0.0 **** 0.06
29409 H 69.28919735678208 18.62775952857112 82.46638638141833 H 0.0 **** 0.06
29410 H 70.579905439613 19.108105091554307 83.59447886964533 H 0.0 **** 0.06
29411 C 70.4191782973444 26.696368194479163 65.11264280910338 C 0.0 **** -0.24
29412 H 69.6166416248793 26.602272845934976 64.381822744877 H 0.0 **** 0.06
29413 H 70.3151982996689 27.640725523520004 65.646550514089 H 0.0 **** 0.06
29414 H 71.38121788414699 26.672080673579643 64.60075022903334 H 0.0 **** 0.06
29415 H 70.36365538068252 25.87039373488207 65.82144774841419 H 0.0 **** 0.06
29416 C 99.313641401215 120.06986425240358 109.59759179418708 C 0.0 **** -0.24
29417 H 99.54479528753849 121.0244847028695 110.07170866152501 H 0.0 **** 0.06
29418 H 99.8985756889094 119.96852701890012 108.68253563079381 H 0.0 **** 0.06
29419 H 98.25091010553379 120.03291336569978 109.35681198510943 H 0.0 **** 0.06
29420 H 99.56091451743914 119.25669878979429 110.28006890061098 H 0.0 **** 0.06
29421 C 114.7123050963927 1.5352422930136527 96.57926339437138 C 0.0 **** -0.24
29422 H 115.46360768698787 1.194654555821586 95.86710017523664 H 0.0 **** 0.06
29423 H 115.20215678522737 2.047784035747327 97.40766026996052 H 0.0 **** 0.06
29424 H 114.15767592526015 0.6763149407613014 96.95952045775972 H 0.0 **** 0.06
29425 H 114.02495876596174 2.2203077937791136 96.08360089538586 H 0.0 **** 0.06
29426 C 52.42148876718004 114.75734292697015 34.36324626934524 C 0.0 **** -0.24
29427 H 53.34703205531527 114.6393837167985 33.79952708513795 H 0.0 **** 0.06
29428 H 51.79873368315337 115.51254158285153 33.884874964107496 H 0.0 **** 0.06
29429 H 52.653477838358725 115.06846492891023 35.38193181623319 H 0.0 **** 0.06
29430 H 51.8871132007194 113.80688374384204 34.38731330525951 H 0.0 **** 0.06
29431 C 112.09347204163407 35.27743094898017 15.157258495644584 C 0.0 **** -0.24
29432 H 112.92265871972552 34.628746197684904 15.437091554453929 H 0.0 **** 0.06
29433 H 111.5447857937246 35.57306030069006 16.05258237014334 H 0.0 **** 0.06
29434 H 111.42536486339856 34.742840441999306 14.481743235006718 H 0.0 **** 0.06
29435 H 112.47949257462608 36.16660010580725 14.65802162187856 H 0.0 **** 0.06
29436 C 133.2013883588698 124.15588134920989 27.30944667081792 C 0.0 **** -0.24
29437 H 133.203275194299 123.08038780881333 27.130041592513976 H 0.0 **** 0.06
29438 H 132.17359342872714 124.51592221858198 27.351365633423967 H 0.0 **** 0.06
29439 H 133.72936198635523 124.65961145845421 26.499380676227645 H 0.0 **** 0.06
29440 H 133.70031783106595 124.36700683818117 28.254841526542293 H 0.0 **** 0.06
29441 C 131.5429073468752 39.676558174046534 110.43229161686833 C 0.0 **** -0.24
29442 H 130.4958634457747 39.69252572082042 110.12995709690492 H 0.0 **** 0.06
29443 H 131.62397200159262 39.96596960875678 111.48042645686704 H 0.0 **** 0.06
29444 H 132.10923318415414 40.37622996934615 109.81677595164373 H 0.0 **** 0.06
29445 H 131.9442307133199 38.67126106441049 110.30054040338575 H 0.0 **** 0.06
29446 C 66.8011513808665 87.31297909446079 91.47010042154014 C 0.0 **** -0.24
29447 H 67.26992050746698 87.534473687255 92.428135726316 H 0.0 **** 0.06
29448 H 65.72262154662484 87.4525881699121 91.55341210528924 H 0.0 **** 0.06
29449 H 67.0135096811118 86.28133109074042 91.19190202170826 H 0.0 **** 0.06
29450 H 67.19619601927049 87.98386556834643 90.70752116997775 H 0.0 **** 0.06
29451 C 5.364657760925127 26.890684929249346 61.59428527450362 C 0.0 **** -0.24
29452 H 6.216630511786917 27.529967719179666 61.368099738282964 H 0.0 **** 0.06
29453 H 5.720424082137072 25.92276749237689 61.94735640261234 H 0.0 **** 0.06
29454 H 4.765226225153867 26.752246241578888 60.69513202139093 H 0.0 **** 0.06
29455 H 4.755433815457764 27.35783834879757 62.368823190939324 H 0.0 **** 0.06
29456 C 118.72593767732224 120.63320924289532 7.013715194655504 C 0.0 **** -0.24
29457 H 118.00390973345407 120.26357124821932 6.2862205751402485 H 0.0 **** 0.06
29458 H 118.41470454230898 121.616874111824 7.3667795941325664 H 0.0 **** 0.06
29459 H 119.70720944042978 120.70955659807976 6.544992584748087 H 0.0 **** 0.06
29460 H 118.77824265279673 119.94502825637103 7.856567564601846 H 0.0 **** 0.06
29461 C 108.42073140419286 53.85680793777021 74.66582164639777 C 0.0 **** -0.24
29462 H 109.48995101985238 53.65121215030845 74.72265364974238 H 0.0 **** 0.06
29463 H 108.26480543701726 54.856758340395174 74.2599652858509 H 0.0 **** 0.06
29464 H 107.98541746267328 53.79560161871052 75.66270858626673 H 0.0 **** 0.06
29465 H 107.94393722898943 53.12244858593874 74.01619040985153 H 0.0 **** 0.06
29466 C 16.900363752400835 67.55667789153955 14.261964648420282 C 0.0 **** -0.24
29467 H 17.061617537964423 66.48372070745083 14.15364475203846 H 0.0 **** 0.06
29468 H 17.450363226639155 67.92032206130222 15.12958180470524 H 0.0 **** 0.06
29469 H 15.83714532029984 67.75218958059347 14.396276754517416 H 0.0 **** 0.06
29470 H 17.25425865525051 68.06784098086342 13.36653415641332 H 0.0 **** 0.06
29471 C 15.223102597951254 117.04211362769229 24.017935494268954 C 0.0 **** -0.24
29472 H 15.219138318851606 117.67291557568277 23.128951099466434 H 0.0 **** 0.06
29473 H 16.076531445593105 117.30258927074044 24.643897713003184 H 0.0 **** 0.06
29474 H 15.296865632186837 115.99610610826292 23.72083393947949 H 0.0 **** 0.06
29475 H 14.300639239133261 117.19703157354587 24.577442275412125 H 0.0 **** 0.06
29476 C 54.063307380415125 116.43371548826912 17.06635194522029 C 0.0 **** -0.24
29477 H 53.594826867651875 116.61433893274739 16.098298592150307 H 0.0 **** 0.06
29478 H 55.129267152511346 116.64994241571921 16.999780840312404 H 0.0 **** 0.06
29479 H 53.921155229206036 115.39029079862436 17.349197811020687 H 0.0 **** 0.06
29480 H 53.6062383838014 117.07865276097101 17.816618492794504 H 0.0 **** 0.06
29481 C 34.79909986876092 99.25329238334024 132.05472926698366 C 0.0 **** -0.24
29482 H 33.80355498349769 99.69920882737699 132.0627950529001 H 0.0 **** 0.06
29483 H 34.84828779051543 98.46215132233755 132.80273489493865 H 0.0 **** 0.06
29484 H 35.54068705619005 100.0179284579333 132.2836225350927 H 0.0 **** 0.06
29485 H 35.0004483641369 98.83489947255703 131.0686429569345 H 0.0 **** 0.06
29486 C 13.520308731654097 10.165425004138289 59.904253925587284 C 0.0 **** -0.24
29487 H 14.355842650360785 10.839062236458428 59.71420917296258 H 0.0 **** 0.06
29488 H 13.835531136585018 9.136582989079724 59.73018494795882 H 0.0 **** 0.06
29489 H 12.696413900587686 10.411158870520993 59.233289473948105 H 0.0 **** 0.06
29490 H 13.193084117811736 10.276034843854006 60.93807865801452 H 0.0 **** 0.06
29491 C 104.35268842892398 3.2490596091336954 98.85461165483304 C 0.0 **** -0.24
29492 H 103.98480980853088 4.261733087675509 98.6930265223242 H 0.0 **** 0.06
29493 H 104.03691716788536 2.899737572046888 99.8377386532431 H 0.0 **** 0.06
29494 H 105.44206233742729 3.246038436202383 98.79999941142222 H 0.0 **** 0.06
29495 H 103.94973931520948 2.58950648180533 98.08684757171272 H 0.0 **** 0.06
29496 C 71.39652825268792 129.8954630275963 13.017661394200047 C 0.0 **** -0.24
29497 H 71.67741048638334 128.8449618223231 13.09351951821958 H 0.0 **** 0.06
29498 H 70.33087775084346 130.00158808433122 13.223815707735298 H 0.0 **** 0.06
29499 H 71.60989987383607 130.2561703047997 12.011609776125852 H 0.0 **** 0.06
29500 H 71.96662140390151 130.47706506311755 13.74187194137636 H 0.0 **** 0.06
29501 C 50.69867518316728 21.873925177756874 1.2760895574494882 C 0.0 **** -0.24
29502 H 51.45641840090606 22.63508594535064 1.0948149457599676 H 0.0 **** 0.06
29503 H 49.81001697038725 22.09813914920214 0.6864288767418785 H 0.0 **** 0.06
29504 H 50.4397877336005 21.86509542763661 2.3356821518990465 H 0.0 **** 0.06
29505 H 51.088393193911614 20.89720916852503 0.9896602263813357 H 0.0 **** 0.06
29506 C 75.85294221576783 113.48779350157898 92.5462884958846 C 0.0 **** -0.24
29507 H 76.23258855199902 112.78528940648917 91.80443964869005 H 0.0 **** 0.06
29508 H 76.22643642656942 113.210616155883 93.53237108995833 H 0.0 **** 0.06
29509 H 74.76379491437592 113.4610215747669 92.54882403147133 H 0.0 **** 0.06
29510 H 76.19116702589025 114.49401258050241 92.299679117073 H 0.0 **** 0.06
29511 C 0.6047747399018881 71.43997025799064 57.2894263615772 C 0.0 **** -0.24
29512 H 1.1069879808735976 70.48033861106296 57.413446693435276 H 0.0 **** 0.06
29513 H -0.4706949628290893 71.2779675156076 57.211067352231396 H 0.0 **** 0.06
29514 H 0.9677213673133771 71.92508460158626 56.382568079393195 H 0.0 **** 0.06
29515 H 0.8161740785891567 72.07449230976943 58.14971707701932 H 0.0 **** 0.06
29516 C 2.385554680083885 60.29519430168871 22.070716413890295 C 0.0 **** -0.24
29517 H 3.3640267000062067 60.46335709040926 21.61954139516274 H 0.0 **** 0.06
29518 H 1.6114903475241817 60.709056871163526 21.42436492258139 H 0.0 **** 0.06
29519 H 2.3466108693272076 60.78348156431953 23.044284580727137 H 0.0 **** 0.06
29520 H 2.2223325477787057 59.224143384923224 22.19401918125537 H 0.0 **** 0.06
29521 C 90.05877049202996 49.85867582968366 110.15264917896229 C 0.0 **** -0.24
29522 H 91.02466819990275 50.35832326954262 110.22513438009952 H 0.0 **** 0.06
29523 H 89.96159214951817 49.39851111915853 109.16905734488148 H 0.0 **** 0.06
29524 H 89.26112511718966 50.58730490555874 110.29420674585944 H 0.0 **** 0.06
29525 H 89.99004402816519 49.09002947289818 110.92264952240876 H 0.0 **** 0.06
29526 C 127.16106705293105 38.10909549614385 36.04853168472104 C 0.0 **** -0.24
29527 H 126.35890231200693 38.37720363869096 35.361320806386516 H 0.0 **** 0.06
29528 H 128.1202034803587 38.18624906853623 35.535763964173725 H 0.0 **** 0.06
29529 H 127.01476673323747 37.086680284497305 36.39596280427395 H 0.0 **** 0.06
29530 H 127.14947577205226 38.788268614436106 36.90135324157757 H 0.0 **** 0.06
29531 C 30.173592149236264 62.99265089337629 51.8567613287112 C 0.0 **** -0.24
29532 H 29.177756923721056 63.18002867505314 52.25907943439012 H 0.0 **** 0.06
29533 H 30.2088466994909 61.99101271321449 51.42620678182482 H 0.0 **** 0.06
29534 H 30.908793663641717 63.07147852396973 52.6563367816093 H 0.0 **** 0.06
29535 H 30.395791667102806 63.72911246868155 51.08373944013175 H 0.0 **** 0.06
29536 C 31.31312218107408 87.38137690920442 3.6386850365067858 C 0.0 **** -0.24
29537 H 30.412510844696342 87.54855478689927 4.229744977363396 H 0.0 **** 0.06
29538 H 32.19158221193986 87.59026561752134 4.249970227700828 H 0.0 **** 0.06
29539 H 31.306561988526823 88.04317489415217 2.772531782592978 H 0.0 **** 0.06
29540 H 31.342295005694908 86.34458490180833 3.304400254838015 H 0.0 **** 0.06
29541 C 14.899795066053663 71.73808818864173 59.6407558439833 C 0.0 **** -0.24
29542 H 15.945670619874939 71.88917031324995 59.90911121826207 H 0.0 **** 0.06
29543 H 14.657764098662547 72.34256887840617 58.76664134001953 H 0.0 **** 0.06
29544 H 14.26434668426996 72.03421531517483 60.47564156084769 H 0.0 **** 0.06
29545 H 14.732482688015274 70.685154217317 59.412156368973854 H 0.0 **** 0.06
29546 C 40.112196296079055 97.15575991408356 17.73303276754811 C 0.0 **** -0.24
29547 H 39.8182255735249 97.58519888610452 18.69144578144605 H 0.0 **** 0.06
29548 H 39.22942108730058 96.77555339642387 17.219388944532852 H 0.0 **** 0.06
29549 H 40.81479367095895 96.34011249467383 17.90221093410142 H 0.0 **** 0.06
29550 H 40.58681059427901 97.92401438626584 17.12140913885034 H 0.0 **** 0.06
29551 C 77.09696246403267 27.58121363608268 87.19959024263991 C 0.0 **** -0.24
29552 H 77.14739606306318 26.979310438415524 88.10657757698625 H 0.0 **** 0.06
29553 H 77.19021859382153 28.636694949400265 87.45813737956279 H 0.0 **** 0.06
29554 H 76.14182220378154 27.411377700661873 86.70385458324792 H 0.0 **** 0.06
29555 H 77.90984892595718 27.29858727885778 86.53109268952831 H 0.0 **** 0.06
29556 C 122.66023953663529 25.710212326918906 3.8372014158033565 C 0.0 **** -0.24
29557 H 123.298798538803 26.44866742551747 3.3526072342393327 H 0.0 **** 0.06
29558 H 121.6269335880188 25.86413070068977 3.5256279403864177 H 0.0 **** 0.06
29559 H 122.73451989363559 25.82014135292451 4.919113658645998 H 0.0 **** 0.06
29560 H 122.98116733615922 24.708486905249913 3.5502508612709747 H 0.0 **** 0.06
29561 C 124.80039889725202 130.06178119822374 62.4136796741557 C 0.0 **** -0.24
29562 H 125.15485598544987 129.03627405461378 62.520597222978736 H 0.0 **** 0.06
29563 H 123.70973666283334 130.07095946954286 62.417112291356545 H 0.0 **** 0.06
29564 H 125.16388354321819 130.47490028388563 61.47238926831302 H 0.0 **** 0.06
29565 H 125.1722446750153 130.6626656071698 63.24326793395721 H 0.0 **** 0.06
29566 C 80.00927914681517 65.79099775605367 64.1633810130297 C 0.0 **** -0.24
29567 H 79.18256412496135 65.08020751009725 64.15221887578797 H 0.0 **** 0.06
29568 H 79.84075680657105 66.5328588322452 64.94501615865335 H 0.0 **** 0.06
29569 H 80.07246496143216 66.28979180630657 63.196428534671355 H 0.0 **** 0.06
29570 H 80.94039448852459 65.26050154833817 64.36117390743297 H 0.0 **** 0.06
29571 C 80.87854152190101 60.384074165066096 26.20919799582643 C 0.0 **** -0.24
29572 H 81.96277465368058 60.46820840018083 26.27931206687751 H 0.0 **** 0.06
29573 H 80.5552383957891 59.45517189864181 26.681116232487312 H 0.0 **** 0.06
29574 H 80.58062023369308 60.38108466572962 25.16032523531524 H 0.0 **** 0.06
29575 H 80.41521136668189 61.23047504850916 26.716275680215986 H 0.0 **** 0.06
29576 C 96.05775904553987 32.68441018393625 114.40379716287961 C 0.0 **** -0.24
29577 H 95.011933641883 32.491564405772024 114.64565012322771 H 0.0 **** 0.06
29578 H 96.35729426579952 33.64361699768353 114.82570709218248 H 0.0 **** 0.06
29579 H 96.17984125625732 32.709244453224784 113.32033958875354 H 0.0 **** 0.06
29580 H 96.67861054602538 31.892452918539398 114.82122153934537 H 0.0 **** 0.06
29581 C 17.002672609372013 70.82783921508928 97.62660784309492 C 0.0 **** -0.24
29582 H 16.638908885894352 69.80603832863795 97.72583423972321 H 0.0 **** 0.06
29583 H 16.495695599818276 71.31473342814405 96.79234140415667 H 0.0 **** 0.06
29584 H 18.0767478229441 70.81567831712982 97.44243512094835 H 0.0 **** 0.06
29585 H 16.798529386217524 71.3772178486523 98.54589275280699 H 0.0 **** 0.06
29586 C 7.775524353221442 25.192733971705366 45.64368639457483 C 0.0 **** -0.24
29587 H 8.833412838205675 25.19858236906822 45.90854459719786 H 0.0 **** 0.06
29588 H 7.379842125986727 26.206778137813103 45.705533727752325 H 0.0 **** 0.06
29589 H 7.231629317391366 24.54685502817614 46.33338101395188 H 0.0 **** 0.06
29590 H 7.659305996679109 24.817990997614174 44.626989273454846 H 0.0 **** 0.06
29591 C 76.6058928424355 41.31977777805548 81.35638992628608 C 0.0 **** -0.24
29592 H 77.19054565165511 41.67776898897594 80.50851700964738 H 0.0 **** 0.06
29593 H 75.55795672055896 41.241494358442566 81.06637326005149 H 0.0 **** 0.06
29594 H 76.70168442019472 42.020254469285135 82.18530149367965 H 0.0 **** 0.06
29595 H 76.97267566821647 40.340391360546846 81.66274860771966 H 0.0 **** 0.06
29596 C 124.94135702403874 47.34713976834621 5.816991760033375 C 0.0 **** -0.24
29597 H 124.78710175515515 46.29765322763821 6.069725652818022 H 0.0 **** 0.06
29598 H 123.9775464438805 47.8561336518932 5.7765501324106765 H 0.0 **** 0.06
29599 H 125.43035540059003 47.41815049102375 4.8451357249307705 H 0.0 **** 0.06
29600 H 125.56865991067488 47.81506900417348 6.574982083305741 H 0.0 **** 0.06
29601 C 24.93125742928555 26.888289292425704 58.12186687310418 C 0.0 **** -0.24
29602 H 23.876664558316435 26.62379225232418 58.040066584592466 H 0.0 **** 0.06
29603 H 25.19168418280637 27.02257172287606 59.172056963956905 H 0.0 **** 0.06
29604 H 25.11565351105834 27.815392132287066 57.57940631556416 H 0.0 **** 0.06
29605 H 25.538813927352123 26.09052629908269 57.69535856112721 H 0.0 **** 0.06
29606 C 26.369912800546643 113.17119460026692 35.945417692582 C 0.0 **** -0.24
29607 H 26.81647423561386 113.29427834506765 36.932296285200266 H 0.0 **** 0.06
29608 H 25.297830157144 113.00382343685982 36.050697214356546 H 0.0 **** 0.06
29609 H 26.824253221902772 112.31550708307705 35.44605839217559 H 0.0 **** 0.06
29610 H 26.541015176154566 114.07108376058568 35.35506566675605 H 0.0 **** 0.06
29611 C 27.588981431019647 127.1939224928546 78.36383977358678 C 0.0 **** -0.24
29612 H 28.252496877247495 128.05658493382967 78.43398167002886 H 0.0 **** 0.06
29613 H 27.709862445636873 126.57062340672677 79.24921598770509 H 0.0 **** 0.06
29614 H 27.839069640444222 126.61601132302727 77.47388042056593 H 0.0 **** 0.06
29615 H 26.55514942553907 127.53537485377352 78.29681877414781 H 0.0 **** 0.06
29616 C 85.4913521644288 52.1169820644145 78.99403910433045 C 0.0 **** -0.24
29617 H 85.10371761997888 53.021641517385405 78.52587162975439 H 0.0 **** 0.06
29618 H 86.33971613569629 52.371617347796146 79.62991923746334 H 0.0 **** 0.06
29619 H 85.81356415539541 51.41768788791819 78.22212254369357 H 0.0 **** 0.06
29620 H 84.70980016919721 51.65723341302727 79.5981646496185 H 0.0 **** 0.06
29621 C 78.29261158675075 123.80051095482445 113.90399178407799 C 0.0 **** -0.24
29622 H 78.29053246763047 124.83062546147981 113.54804258808215 H 0.0 **** 0.06
29623 H 79.31341691010289 123.50168408869372 114.1446162020286 H 0.0 **** 0.06
29624 H 77.89541102490014 123.14753451739595 113.12815259093122 H 0.0 **** 0.06
29625 H 77.67222967941473 123.7246467013333 114.79754425067134 H 0.0 **** 0.06
29626 C 2.5838992588994074 82.24604148774108 78.06246432408989 C 0.0 **** -0.24
29627 H 1.6906232894997686 81.88655918651557 78.5724736782065 H 0.0 **** 0.06
29628 H 2.3654973116568385 83.19455714719714 77.57079294775019 H 0.0 **** 0.06
29629 H 2.896449708023397 81.5138518379016 77.3187529961155 H 0.0 **** 0.06
29630 H 3.38416504975487 82.38965979293937 78.78970609478472 H 0.0 **** 0.06
29631 C 62.492823390190324 66.82781991828932 22.502352714380564 C 0.0 **** -0.24
29632 H 63.0549793874595 66.02866025635129 22.019669059420977 H 0.0 **** 0.06
29633 H 61.92855449993135 67.38009297209669 21.750802209473022 H 0.0 **** 0.06
29634 H 63.18212021006755 67.50279810388088 23.009122266458803 H 0.0 **** 0.06
29635 H 61.80405891782641 66.39762904966125 23.230863851367957 H 0.0 **** 0.06
29636 C 17.725416876239024 24.152090154626777 84.71364507534156 C 0.0 **** -0.24
29637 H 16.702197596307997 24.50370224586574 84.84373841849026 H 0.0 **** 0.06
29638 H 18.3034424757235 24.90618720971588 84.17870569715905 H 0.0 **** 0.06
29639 H 17.720295090772083 23.223843851361067 84.14112984263954 H 0.0 **** 0.06
29640 H 18.174499808157293 23.97394514099733 85.69088145929058 H 0.0 **** 0.06
29641 C 57.96404498280816 47.86373898648873 32.26783460408429 C 0.0 **** -0.24
29642 H 57.36526143234846 48.61631186125544 32.779799778059896 H 0.0 **** 0.06
29643 H 57.349172306193566 47.354650049921815 31.525078152556745 H 0.0 **** 0.06
29644 H 58.33214869672494 47.13794224537804 32.99312821282849 H 0.0 **** 0.06
29645 H 58.807988685744334 48.3445938082466 31.773867298463912 H 0.0 **** 0.06
29646 C 65.36797656716232 100.34756511132183 136.77814233349045 C 0.0 **** -0.24
29647 H 65.33562018805304 100.44461677406251 135.69338104257653 H 0.0 **** 0.06
29648 H 66.08949648308223 99.57819344851468 137.05295374990075 H 0.0 **** 0.06
29649 H 64.38083228560328 100.06908029792702 137.1471537715254 H 0.0 **** 0.06
29650 H 65.66559564157302 101.29930190203045 137.21905509265923 H 0.0 **** 0.06
29651 C 108.64571081083017 94.5959627993367 123.31160599504837 C 0.0 **** -0.24
29652 H 109.16717573386347 93.78663932571307 122.80040944002177 H 0.0 **** 0.06
29653 H 109.27175741018539 95.48768997850739 123.31342518485361 H 0.0 **** 0.06
29654 H 108.43332730983462 94.29831722382697 124.3385696912885 H 0.0 **** 0.06
29655 H 107.71081487225433 94.80901490671118 122.79363067931904 H 0.0 **** 0.06
29656 C 13.239167051206266 71.2067529842462 21.80401953737166 C 0.0 **** -0.24
29657 H 13.036616744653543 70.71097537175909 20.85446437231643 H 0.0 **** 0.06
29658 H 14.274805103995561 71.54656738106708 21.82323084812586 H 0.0 **** 0.06
29659 H 13.0702639645325 70.50758360536439 22.62238616784643 H 0.0 **** 0.06
29660 H 12.573722228740223 72.06333087905145 21.914846401099723 H 0.0 **** 0.06
29661 C 59.98969650627264 123.79120396829126 8.331397559322603 C 0.0 **** -0.24
29662 H 59.73463029462927 123.90244225653913 9.385640590086275 H 0.0 **** 0.06
29663 H 59.1102208024835 123.99840606412084 7.720961745067424 H 0.0 **** 0.06
29664 H 60.32864477365953 122.7718998617097 8.146553654848617 H 0.0 **** 0.06
29665 H 60.784144019525755 124.4904814615141 8.073907519083473 H 0.0 **** 0.06
29666 C 15.238495666640233 47.36001398607918 50.501182504606476 C 0.0 **** -0.24
29667 H 16.214469278949423 46.87539720991097 50.46656788151073 H 0.0 **** 0.06
29668 H 14.647410163933955 47.04628812351069 49.641669268857 H 0.0 **** 0.06
29669 H 15.370047200439103 48.44251811051976 50.477536162592116 H 0.0 **** 0.06
29670 H 14.725600679581532 47.07640025466543 51.42002255043418 H 0.0 **** 0.06
29671 C 81.94019633255127 19.984089239504215 49.49413292430822 C 0.0 **** -0.24
29672 H 81.77658335910957 20.999205375792968 49.131536572158694 H 0.0 **** 0.06
29673 H 81.01065904317568 19.593133992047584 49.90904800893446 H 0.0 **** 0.06
29674 H 82.70850806397681 19.993949844272933 50.267599755596336 H 0.0 **** 0.06
29675 H 82.26387782392362 19.351342094801367 48.668153886207165 H 0.0 **** 0.06
29676 C 108.59834797217536 35.71644884748177 112.12098490659355 C 0.0 **** -0.24
29677 H 108.28112839025417 36.16596755890003 113.06254413414828 H 0.0 **** 0.06
29678 H 107.73236518811305 35.58561047143127 111.47149338614605 H 0.0 **** 0.06
29679 H 109.0558757169205 34.74703010890969 112.31750390416113 H 0.0 **** 0.06
29680 H 109.32274142710848 36.3683368062735 111.63382556542624 H 0.0 **** 0.06
29681 C 43.80685910920084 79.21072380773408 73.24150632511682 C 0.0 **** -0.24
29682 H 42.99622232847827 79.7643052664319 72.76653823137512 H 0.0 **** 0.06
29683 H 43.752734849870535 79.34324314919441 74.3218309184154 H 0.0 **** 0.06
29684 H 44.76398400867373 79.58404180207975 72.87605358423085 H 0.0 **** 0.06
29685 H 43.713801483748114 78.15137429794565 72.99925434022195 H 0.0 **** 0.06
29686 C 54.408384792996145 99.67761633448627 24.162253739878906 C 0.0 **** -0.24
29687 H 55.23012523706092 99.19433513329163 24.69123200950804 H 0.0 **** 0.06
29688 H 53.620064099443056 98.94966604814344 23.973079528250224 H 0.0 **** 0.06
29689 H 54.77159022755271 100.07487268518784 23.21362613298973 H 0.0 **** 0.06
29690 H 54.014544022836105 100.49200871776317 24.769324163318856 H 0.0 **** 0.06
29691 C 72.40030973344825 120.08956095876579 91.02018127976953 C 0.0 **** -0.24
29692 H 72.90333678696787 121.0353475944478 90.81811075259056 H 0.0 **** 0.06
29693 H 71.44165197600636 120.07021189976068 90.50172107456085 H 0.0 **** 0.06
29694 H 72.23611715348322 119.98780957917239 92.0932369846651 H 0.0 **** 0.06
29695 H 73.02188393378933 119.26556074517435 90.66886624525736 H 0.0 **** 0.06
29696 C 48.858696415960196 65.52988620323038 19.72521113498007 C 0.0 **** -0.24
29697 H 47.82816179227652 65.81265634199934 19.93931504874888 H 0.0 **** 0.06
29698 H 49.52787026087577 66.33060030622713 20.041769819524546 H 0.0 **** 0.06
29699 H 48.974032354417034 65.3599120285013 18.654539157675117 H 0.0 **** 0.06
29700 H 49.103452658649644 64.61594380207941 20.267270885978746 H 0.0 **** 0.06
29701 C 102.84934075107788 76.22226397744367 2.6507161925328546 C 0.0 **** -0.24
29702 H 103.15633612081405 77.0070047347437 3.3427854747262415 H 0.0 **** 0.06
29703 H 103.39609978821841 75.30599400338713 2.8758939061586375 H 0.0 **** 0.06
29704 H 103.06517931258253 76.53383962829895 1.6292665652492815 H 0.0 **** 0.06
29705 H 101.77952004408797 76.04310794739573 2.757593835497403 H 0.0 **** 0.06
29706 C 126.6951750342803 87.77906417753377 117.62223614129215 C 0.0 **** -0.24
29707 H 126.31060664805078 86.7593157670351 117.61951900478465 H 0.0 **** 0.06
29708 H 126.11693700342637 88.38319030198528 118.32287982094692 H 0.0 **** 0.06
29709 H 126.61001124286577 88.20263999481392 116.6215170409663 H 0.0 **** 0.06
29710 H 127.74194523867016 87.77279264803639 117.92588373767146 H 0.0 **** 0.06
29711 C 124.94513821259599 116.37568696334404 22.880310828140892 C 0.0 **** -0.24
29712 H 125.8680891380536 115.85526591806416 23.132500245106087 H 0.0 **** 0.06
29713 H 124.09206799124652 115.79590108741388 23.23471830753033 H 0.0 **** 0.06
29714 H 124.87817762038725 116.4954410649139 21.799335684859443 H 0.0 **** 0.06
29715 H 124.93995629410078 117.35704054863763 23.354959501101263 H 0.0 **** 0.06
29716 C 63.56653719839579 106.0239392516662 64.22942616126511 C 0.0 **** -0.24
29717 H 63.01587702344386 106.5870733644158 64.98449272419361 H 0.0 **** 0.06
29718 H 64.61086721885333 106.33754201279595 64.23381017962595 H 0.0 **** 0.06
29719 H 63.13343575183235 106.21328713182902 63.247773202548274 H 0.0 **** 0.06
29720 H 63.50560505596347 104.95940111088356 64.45501621148514 H 0.0 **** 0.06
29721 C 62.11722307881618 46.91969440007958 15.125869689810202 C 0.0 **** -0.24
29722 H 62.34499798222784 46.15057588985678 14.387777299107427 H 0.0 **** 0.06
29723 H 61.910277192635746 47.86126779224833 14.61585589193561 H 0.0 **** 0.06
29724 H 62.96988112225951 47.04720213735763 15.79259908489962 H 0.0 **** 0.06
29725 H 61.24357955644277 46.62040912814507 15.704897654129468 H 0.0 **** 0.06
29726 C 129.6507630488163 81.78821575687401 111.4030358584501 C 0.0 **** -0.24
29727 H 129.9670251376967 80.7850037893556 111.11901991570892 H 0.0 **** 0.06
29728 H 129.99626267557346 82.00549821913476 112.41398760044802 H 0.0 **** 0.06
29729 H 128.5627927263251 81.84833383008919 111.3700742236642 H 0.0 **** 0.06
29730 H 130.07561661118197 82.5136223139155 110.70905686051515 H 0.0 **** 0.06
29731 C 31.758253294317484 104.729254059712 136.5911283890147 C 0.0 **** -0.24
29732 H 31.57738232594373 103.74652113829072 136.15661518819238 H 0.0 **** 0.06
29733 H 32.567859472623496 105.22183826424317 136.05233555954175 H 0.0 **** 0.06
29734 H 32.03381657745206 104.61705743658737 137.63970926521696 H 0.0 **** 0.06
29735 H 30.852392069909 105.33048021346625 136.51699613866197 H 0.0 **** 0.06
29736 C 15.104292823308676 10.287068718356295 20.46956580942259 C 0.0 **** -0.24
29737 H 15.094156907406422 9.986979856372727 19.420709241638825 H 0.0 **** 0.06
29738 H 16.133866046255967 10.442957566238846 20.79177491750948 H 0.0 **** 0.06
29739 H 14.648224186596423 9.504133324232356 21.074867052952428 H 0.0 **** 0.06
29740 H 14.541452774955786 11.212592284970412 20.587023149189278 H 0.0 **** 0.06
29741 C 89.21564690303597 134.44396435865534 32.045910268512735 C 0.0 **** -0.24
29742 H 88.68027491423169 135.02736017644432 32.79542560865927 H 0.0 **** 0.06
29743 H 88.49796357472451 133.92738144090174 31.408229460747343 H 0.0 **** 0.06
29744 H 89.85244187032737 133.71287578066222 32.543044735284774 H 0.0 **** 0.06
29745 H 89.82985411948948 135.10927321899968 31.439332437971416 H 0.0 **** 0.06
29746 C 25.391994683089465 67.16328935507181 56.16785775416605 C 0.0 **** -0.24
29747 H 25.759171079952267 66.1555572993845 55.97513351915234 H 0.0 **** 0.06
29748 H 25.9274308802362 67.58845942369453 57.01625831619074 H 0.0 **** 0.06
29749 H 24.326267480088376 67.1258723353817 56.39163781998246 H 0.0 **** 0.06
29750 H 25.55578524681092 67.78318864400688 55.286271346783565 H 0.0 **** 0.06
29751 C 1.061312116122167 16.204077063731063 40.137922306089195 C 0.0 **** -0.24
29752 H 1.9432393935977075 15.93416674304899 39.556041037888335 H 0.0 **** 0.06
29753 H 1.3457254054787313 16.35167731039826 41.18062187602155 H 0.0 **** 0.06
29754 H 0.3245874106034421 15.40394595727605 40.07198334646676 H 0.0 **** 0.06
29755 H 0.634081651447616 17.12612538190865 39.74343770462102 H 0.0 **** 0.06
29756 C 5.4604839229132835 33.65632787260563 82.0874689098815 C 0.0 **** -0.24
29757 H 4.503352748635475 33.49414367729669 82.58391659007071 H 0.0 **** 0.06
29758 H 5.512521567148845 34.68388564464522 81.72743533450071 H 0.0 **** 0.06
29759 H 5.553561972309506 32.970829203321564 81.24562089814475 H 0.0 **** 0.06
29760 H 6.270982468309725 33.47684500678684 82.79478576367308 H 0.0 **** 0.06
29761 C 92.60100867373211 42.10821134633113 9.031438118871847 C 0.0 **** -0.24
29762 H 92.72493340196286 41.983210948098645 10.106550934338472 H 0.0 **** 0.06
29763 H 91.83568394033702 42.85962412956775 8.839352451724665 H 0.0 **** 0.06
29764 H 92.30008699825902 41.15985856299949 8.587025951826035 H 0.0 **** 0.06
29765 H 93.54541300997707 42.43091636889494 8.593102649904182 H 0.0 **** 0.06
29766 C 134.55629165809395 7.403616796730223 41.11634715556024 C 0.0 **** -0.24
29767 H 133.940590102619 8.10049954840252 41.685102895899206 H 0.0 **** 0.06
29768 H 135.28268122808106 7.9601036547778286 40.52567842985046 H 0.0 **** 0.06
29769 H 133.92004726300547 6.816226692892222 40.45282165487214 H 0.0 **** 0.06
29770 H 135.07806903974347 6.735845986516669 41.802500645213875 H 0.0 **** 0.06
29771 C 77.80020140027418 134.84365602371412 94.2382122333288 C 0.0 **** -0.24
29772 H 78.43748622506978 134.78607677455759 95.12041897044872 H 0.0 **** 0.06
29773 H 76.8366637537112 134.3823524924672 94.4562451374976 H 0.0 **** 0.06
29774 H 78.27656887693502 134.31836392894212 93.41102286097117 H 0.0 **** 0.06
29775 H 77.64931232733181 135.88870193211858 93.96596300777526 H 0.0 **** 0.06
29776 C 90.36858265318676 31.758725211702597 49.51821870096511 C 0.0 **** -0.24
29777 H 89.65317845285938 32.53981703443134 49.260564930754214 H 0.0 **** 0.06
29778 H 89.90244797179247 30.78183920859584 49.38919830069902 H 0.0 **** 0.06
29779 H 90.67992650873941 31.879928485899484 50.55540711130075 H 0.0 **** 0.06
29780 H 91.23917199182046 31.83589659000603 48.86661540092547 H 0.0 **** 0.06
29781 C 97.82607921856118 127.92042781829099 119.76819198177698 C 0.0 **** -0.24
29782 H 97.57495526717707 128.95939092471042 119.98260397745463 H 0.0 **** 0.06
29783 H 98.85650881002897 127.86124879274587 119.41769410251135 H 0.0 **** 0.06
29784 H 97.15689624933918 127.53573253377135 118.99881318246864 H 0.0 **** 0.06
29785 H 97.71564809541371 127.32664098195932 120.67570850174428 H 0.0 **** 0.06
29786 C 82.40506134985299 120.22911990609157 40.580289088382074 C 0.0 **** -0.24
29787 H 83.29510198237108 120.4207830591759 41.17927986567145 H 0.0 **** 0.06
29788 H 82.6583331763976 119.56133399033617 39.756629308573224 H 0.0 **** 0.06
29789 H 82.02493157491358 121.1704705014412 40.181685853854844 H 0.0 **** 0.06
29790 H 81.64109250097812 119.76344052993738 41.20313930668567 H 0.0 **** 0.06
29791 C 35.39842589894889 14.092510967434151 79.12106112379303 C 0.0 **** -0.24
29792 H 34.89219184001257 15.048439144361993 79.25860203068669 H 0.0 **** 0.06
29793 H 34.86334371011897 13.316236252804387 79.6667364983623 H 0.0 **** 0.06
29794 H 36.4189480534512 14.163883253002936 79.497661182294 H 0.0 **** 0.06
29795 H 35.4201173540208 13.842346977992918 78.06057232052632 H 0.0 **** 0.06
29796 C 88.19733453601867 8.496839627810573 130.6781831042367 C 0.0 **** -0.24
29797 H 89.0109284310323 8.461690578179173 129.95395140051758 H 0.0 **** 0.06
29798 H 87.74453604730695 7.509222098937528 130.76494830316426 H 0.0 **** 0.06
29799 H 87.44664188038048 9.213866249612465 130.34571291473063 H 0.0 **** 0.06
29800 H 88.58879918561964 8.803819732867112 131.6481937840476 H 0.0 **** 0.06
29801 C 80.32611611436295 37.8356979117861 118.883030993962 C 0.0 **** -0.24
29802 H 80.57955757591367 37.75493458823195 117.82624447459185 H 0.0 **** 0.06
29803 H 81.1879614918065 38.209127702644025 119.4357748608071 H 0.0 **** 0.06
29804 H 80.04671187599456 36.85397555189496 119.2654581650998 H 0.0 **** 0.06
29805 H 79.49023351373698 38.52475380437335 119.00464647534898 H 0.0 **** 0.06
29806 C 132.76384411782905 54.837909263762455 78.37684879226018 C 0.0 **** -0.24
29807 H 131.74053069215543 55.18746351242007 78.23956613972977 H 0.0 **** 0.06
29808 H 132.90117575385074 53.89860207222162 77.84040949313952 H 0.0 **** 0.06
29809 H 132.95551537278862 54.681954957464555 79.43801060879578 H 0.0 **** 0.06
29810 H 133.45703871500936 55.58318219572159 77.987806979372 H 0.0 **** 0.06
29811 C 106.05735979321264 4.140329558107254 53.39691601617892 C 0.0 **** -0.24
29812 H 106.79277704085477 4.923133072707742 53.21321746671984 H 0.0 **** 0.06
29813 H 106.24547377035528 3.3018270911204013 52.726273180941234 H 0.0 **** 0.06
29814 H 105.05632059331573 4.532654493285946 53.21642571378098 H 0.0 **** 0.06
29815 H 106.13514996687739 3.8044752396475303 54.43059662081458 H 0.0 **** 0.06
29816 C 16.88036465502151 131.46896297765952 106.23410216476803 C 0.0 **** -0.24
29817 H 17.44974340446808 132.37323712692555 106.01876946321511 H 0.0 **** 0.06
29818 H 15.891444558639478 131.74301842324158 106.60249699257965 H 0.0 **** 0.06
29819 H 17.40156477555732 130.88435146696457 106.9928095668728 H 0.0 **** 0.06
29820 H 16.778960485787536 130.87757709991982 105.32467709789385 H 0.0 **** 0.06
29821 C 71.50008330729179 102.46513812645318 31.347060557430638 C 0.0 **** -0.24
29822 H 72.57047188048739 102.53781984328896 31.543383759513375 H 0.0 **** 0.06
29823 H 71.05928945652013 103.46224378741515 31.363375442840407 H 0.0 **** 0.06
29824 H 71.03191085291446 101.84819178904856 32.113647670541724 H 0.0 **** 0.06
29825 H 71.34071833360389 102.01306341428335 30.368921892171443 H 0.0 **** 0.06
29826 C 63.02978173847369 0.7776990765314906 20.208640705354114 C 0.0 **** -0.24
29827 H 63.47807358054844 -0.17132647247859722 20.501032475787476 H 0.0 **** 0.06
29828 H 63.70725508321593 1.3085692499597599 19.539829978831328 H 0.0 **** 0.06
29829 H 62.84666651183113 1.3826753864970556 21.096451790562945 H 0.0 **** 0.06
29830 H 62.08592926961656 0.5906259712647284 19.695380257620172 H 0.0 **** 0.06
29831 C 67.45343565888533 110.85515592845385 109.84233243725083 C 0.0 **** -0.24
29832 H 66.55536001442587 110.64111563621364 110.42211857940632 H 0.0 **** 0.06
29833 H 68.15138325347152 110.02115900576524 109.93325813184273 H 0.0 **** 0.06
29834 H 67.92174684896372 111.76299758765529 110.22058782960858 H 0.0 **** 0.06
29835 H 67.18582075961962 110.99281367495158 108.79486088313286 H 0.0 **** 0.06
29836 C 102.03586696020125 19.4198983084961 67.04737674924866 C 0.0 **** -0.24
29837 H 101.49742463290266 20.02186412166384 67.77956189972195 H 0.0 **** 0.06
29838 H 101.49014096690149 18.49357297218924 66.8668730352581 H 0.0 **** 0.06
29839 H 103.03011709031568 19.18805385368512 67.42867436199961 H 0.0 **** 0.06
29840 H 102.12502700908863 19.977565775046912 66.11493020492043 H 0.0 **** 0.06
29841 C 10.173449636654254 28.412814424436363 24.46189506562797 C 0.0 **** -0.24
29842 H 10.963568732519889 28.388477560770887 23.711652053863872 H 0.0 **** 0.06
29843 H 10.264088813087994 29.32190151097778 25.056230207394208 H 0.0 **** 0.06
29844 H 10.26261596226999 27.542500694964318 25.11215381917998 H 0.0 **** 0.06
29845 H 9.201551214802976 28.39733045771149 23.967460215156393 H 0.0 **** 0.06
29846 C 56.72303196562484 34.62795387400314 24.769441949481205 C 0.0 **** -0.24
29847 H 56.305576363211514 35.019919812513365 23.842356434504893 H 0.0 **** 0.06
29848 H 56.04535011305876 33.88112718047569 25.184689249358513 H 0.0 **** 0.06
29849 H 56.84775198168654 35.44193911383036 25.483428643748653 H 0.0 **** 0.06
29850 H 57.69042232132887 34.17018380016799 24.56734683641531 H 0.0 **** 0.06
29851 C 34.631697054391836 3.833634865745001 112.57925387718186 C 0.0 **** -0.24
29852 H 34.14942739685405 4.370336557286773 113.39554995163923 H 0.0 **** 0.06
29853 H 35.5717796240041 3.407470879034225 112.93075369030242 H 0.0 **** 0.06
29854 H 34.82966018170132 4.5222384235375905 111.75804148923089 H 0.0 **** 0.06
29855 H 33.97666633985695 3.033817639451666 112.23366418673137 H 0.0 **** 0.06
29856 C 103.64955694565965 117.94729248224394 64.63868154911113 C 0.0 **** -0.24
29857 H 102.92855881861561 117.71541172718821 63.85534443306659 H 0.0 **** 0.06
29858 H 104.59017133315267 118.2614156195558 64.18533143053646 H 0.0 **** 0.06
29859 H 103.81866609911084 117.06081689440146 65.2498788850315 H 0.0 **** 0.06
29860 H 103.26143393583148 118.75082866121068 65.26378246249881 H 0.0 **** 0.06
29861 C 113.1889889607427 135.7156800453816 51.73130676095576 C 0.0 **** -0.24
29862 H 113.00064472776143 135.17247273361437 50.80446459701278 H 0.0 **** 0.06
29863 H 114.16646568501355 135.43539788164006 52.123764683857075 H 0.0 **** 0.06
29864 H 112.41814825208112 135.46663115933768 52.46112889767062 H 0.0 **** 0.06
29865 H 113.17047505667085 136.78740574451518 51.53356875225586 H 0.0 **** 0.06
29866 C 18.246010409031555 105.91648994067826 124.44773012976208 C 0.0 **** -0.24
29867 H 19.145254025651155 106.05667803491178 123.84691623834317 H 0.0 **** 0.06
29868 H 17.665151096964195 106.83880746604048 124.45145878265885 H 0.0 **** 0.06
29869 H 18.527103945428934 105.6594116560767 125.46853481081507 H 0.0 **** 0.06
29870 H 17.64745563371946 105.11184549534521 124.02108912992855 H 0.0 **** 0.06
29871 C 50.725270501390014 34.8811037728093 116.10682862228967 C 0.0 **** -0.24
29872 H 50.13446443963801 35.60728972883669 116.66390774875347 H 0.0 **** 0.06
29873 H 51.73867134308853 35.26321721089238 115.97463850966543 H 0.0 **** 0.06
29874 H 50.269572242159484 34.71382590091258 115.13094068445457 H 0.0 **** 0.06
29875 H 50.75948405829138 33.94140409293243 116.65797107175186 H 0.0 **** 0.06
29876 C 92.34206601608297 85.57936486194859 84.74265680863718 C 0.0 **** -0.24
29877 H 92.4684801383491 85.26889709125913 83.70603188029956 H 0.0 **** 0.06
29878 H 93.31285421246312 85.59410516708823 85.23789115097202 H 0.0 **** 0.06
29879 H 91.68292963254184 84.87823253368734 85.25477667528541 H 0.0 **** 0.06
29880 H 91.903693908925 86.57753938448968 84.77234923847648 H 0.0 **** 0.06
29881 C 85.73386727610352 116.75173529625212 98.9416325114532 C 0.0 **** -0.24
29882 H 85.74945498888937 116.59006815306915 100.0192436647685 H 0.0 **** 0.06
29883 H 84.99191017034866 117.51217637414308 98.6986138507396 H 0.0 **** 0.06
29884 H 85.47686897795973 115.81896309980132 98.43780610097191 H 0.0 **** 0.06
29885 H 86.71761368542397 117.08391528156866 98.60962116828027 H 0.0 **** 0.06
29886 C 74.00865140440064 123.3545423592114 122.22738656617483 C 0.0 **** -0.24
29887 H 73.26016452738844 122.56309984744121 122.17660017135559 H 0.0 **** 0.06
29888 H 74.2815549289289 123.6603051532515 121.21731139702406 H 0.0 **** 0.06
29889 H 74.89210082657402 122.98645538654421 122.74773750307814 H 0.0 **** 0.06
29890 H 73.59782063078242 124.20836225460243 122.76744099486044 H 0.0 **** 0.06
29891 C 56.76339970876924 68.09236537987573 90.89728127577014 C 0.0 **** -0.24
29892 H 55.821530642020676 67.80993848217622 91.36895258983128 H 0.0 **** 0.06
29893 H 56.864345235786374 67.56926422854087 89.94640786544859 H 0.0 **** 0.06
29894 H 57.5926656356619 67.82126221727373 91.55205241370322 H 0.0 **** 0.06
29895 H 56.77450729579711 69.16842190788822 90.72380207669258 H 0.0 **** 0.06
29896 C 130.74018282834902 86.02424523939565 91.63371086613671 C 0.0 **** -0.24
29897 H 131.47284227007077 86.29141683519161 90.87222971793159 H 0.0 **** 0.06
29898 H 131.05865041795917 86.42035572188732 92.5989574828259 H 0.0 **** 0.06
29899 H 130.6580964707776 84.93977325114756 91.6948363656655 H 0.0 **** 0.06
29900 H 129.77076299811765 86.44759549178336 91.3692550908395 H 0.0 **** 0.06
29901 C 82.63152125704704 107.9103518924367 22.45240074310729 C 0.0 **** -0.24
29902 H 82.38816172224507 106.98514095179567 22.973501360005613 H 0.0 **** 0.06
29903 H 82.03685871354448 108.72593607279971 22.863964796227208 H 0.0 **** 0.06
29904 H 82.41159765610527 107.7987405569382 21.390594457335084 H 0.0 **** 0.06
29905 H 83.69135424082475 108.13231134568296 22.58292727874516 H 0.0 **** 0.06
29906 C 0.561723770132545 46.515947572444375 90.70735833405672 C 0.0 **** -0.24
29907 H 1.559683486320239 46.3017286641317 91.09024570727718 H 0.0 **** 0.06
29908 H 0.5958901032905146 47.41018711601504 90.0855542386812 H 0.0 **** 0.06
29909 H -0.1196850660399491 46.67997666414239 91.54254486854455 H 0.0 **** 0.06
29910 H 0.21085343290405945 45.67153866942583 90.11350674910364 H 0.0 **** 0.06
29911 C 88.45214569482012 16.978570789419905 98.28312522987132 C 0.0 **** -0.24
29912 H 88.58984079711767 17.911093259673237 98.82945014544565 H 0.0 **** 0.06
29913 H 89.41172255185472 16.64136221585835 97.89279378424659 H 0.0 **** 0.06
29914 H 87.75981084580232 17.140231097320736 97.45774628714588 H 0.0 **** 0.06
29915 H 88.04610766114233 16.221147859830154 98.95465240563861 H 0.0 **** 0.06
29916 C 20.456307244228242 3.1882153306067096 80.22643993189897 C 0.0 **** -0.24
29917 H 19.475234339734726 3.6326721102544752 80.06262560915431 H 0.0 **** 0.06
29918 H 21.112884721989985 3.921092092181027 80.6969787716521 H 0.0 **** 0.06
29919 H 20.880053388306266 2.8807502407855736 79.27075146022783 H 0.0 **** 0.06
29920 H 20.356450713996992 2.318725250266368 80.87698184889602 H 0.0 **** 0.06
29921 C 111.46928159215719 30.583751999855217 88.85407632499897 C 0.0 **** -0.24
29922 H 110.43346323458297 30.34261489123802 88.61402775898925 H 0.0 **** 0.06
29923 H 111.55820687244915 31.65409411515148 89.04494067239906 H 0.0 **** 0.06
29924 H 112.10977380041788 30.309392883415214 88.01590398880778 H 0.0 **** 0.06
29925 H 111.774615113952 30.029736723796013 89.74184633194358 H 0.0 **** 0.06
29926 C 49.63369116303541 16.847026522713065 36.188028980190765 C 0.0 **** -0.24
29927 H 50.2462668817098 15.99304970903512 35.897721066146204 H 0.0 **** 0.06
29928 H 49.41458344866692 17.452009814524388 35.308823067089875 H 0.0 **** 0.06
29929 H 50.173230554210136 17.449040362522567 36.91873317051241 H 0.0 **** 0.06
29930 H 48.70166248561884 16.492062017228022 36.627350942580335 H 0.0 **** 0.06
29931 C 91.96895595829034 63.72519749812301 2.5071298727212366 C 0.0 **** -0.24
29932 H 92.42537803727163 62.949608333802075 3.1227193695860933 H 0.0 **** 0.06
29933 H 92.2584521048737 63.57996171201194 1.4666993960903483 H 0.0 **** 0.06
29934 H 92.30826600108281 64.70433823630049 2.845727258701686 H 0.0 **** 0.06
29935 H 90.8843732012354 63.66594426494129 2.5950180626879273 H 0.0 **** 0.06
29936 C 5.530988269027109 65.22348295116421 18.13333543022651 C 0.0 **** -0.24
29937 H 5.288101648570095 66.22492349475328 17.77724974447051 H 0.0 **** 0.06
29938 H 4.707050561860992 64.84421564375145 18.736811171545185 H 0.0 **** 0.06
29939 H 6.437868109787377 65.26288264083408 18.737532189603257 H 0.0 **** 0.06
29940 H 5.691312404753223 64.56470279924247 17.280000247373778 H 0.0 **** 0.06
29941 C 121.43666152605307 12.689217244015452 50.10447827959126 C 0.0 **** -0.24
29942 H 122.23495810781216 13.222568857402791 49.587237774188054 H 0.0 **** 0.06
29943 H 120.94237288745549 12.012382792493383 49.407457522134735 H 0.0 **** 0.06
29944 H 120.71234038548727 13.406268137021414 50.490765685865014 H 0.0 **** 0.06
29945 H 121.85882143720468 12.116491439605767 50.93024291015577 H 0.0 **** 0.06
29946 C 64.6319225067066 58.23955789021322 13.86097505813622 C 0.0 **** -0.24
29947 H 64.46047019453295 57.173901117804434 13.706156289860012 H 0.0 **** 0.06
29948 H 65.60238769585006 58.38678261845318 14.335619439346686 H 0.0 **** 0.06
29949 H 63.84829543964102 58.64352356154119 14.501816232168508 H 0.0 **** 0.06
29950 H 64.6159855300464 58.7527580375956 12.900003343327743 H 0.0 **** 0.06
29951 C 98.53151756399849 76.30556504927921 43.812088024805576 C 0.0 **** -0.24
29952 H 98.70324288224327 76.32617756785316 44.88815706942751 H 0.0 **** 0.06
29953 H 99.14326364640519 75.52266935786619 43.36161025515611 H 0.0 **** 0.06
29954 H 98.80173315764732 77.27017273976713 43.38326222732604 H 0.0 **** 0.06
29955 H 97.47957003959009 76.1021159121878 43.61616498860798 H 0.0 **** 0.06
29956 C 46.414002864462645 64.2452545981115 17.107190528756234 C 0.0 **** -0.24
29957 H 46.94609628070839 64.61691134219899 16.23185522544435 H 0.0 **** 0.06
29958 H 45.67339696864482 64.98101133395716 17.42237467230558 H 0.0 **** 0.06
29959 H 47.122710883662535 64.07302230381816 17.917294871848696 H 0.0 **** 0.06
29960 H 45.91296836989949 63.31021946894623 16.85776162442599 H 0.0 **** 0.06
29961 C 90.19987938038733 112.3709955189075 8.27702312816399 C 0.0 **** -0.24
29962 H 90.45867481396503 113.12986601392063 9.014341568764365 H 0.0 **** 0.06
29963 H 89.11520566216988 112.27304155073682 8.221587966463119 H 0.0 **** 0.06
29964 H 90.63642724992066 111.41633339761242 8.570218020731431 H 0.0 **** 0.06
29965 H 90.58887778939605 112.66336792840576 7.30200997765823 H 0.0 **** 0.06
29966 C 72.84684945928225 96.78582084091846 78.5781018814122 C 0.0 **** -0.24
29967 H 72.64822275010192 96.25048072196336 79.50637631942014 H 0.0 **** 0.06
29968 H 73.73983165418849 97.40101498025216 78.69689632565144 H 0.0 **** 0.06
29969 H 71.99581405095887 97.4237276327887 78.33682448773308 H 0.0 **** 0.06
29970 H 73.00413358510585 96.06896238918017 77.77140442559067 H 0.0 **** 0.06
29971 C 127.40027808312767 60.70588466108761 119.03129720329677 C 0.0 **** -0.24
29972 H 127.29825234264722 59.66107158249761 119.32462371093605 H 0.0 **** 0.06
29973 H 128.4570036470427 60.95482361399196 118.93429442153123 H 0.0 **** 0.06
29974 H 126.94518025412884 61.34083748615643 119.79180490427889 H 0.0 **** 0.06
29975 H 126.89907905743338 60.866213740744556 118.07672390315705 H 0.0 **** 0.06
29976 C 59.743230553849116 71.75695817953874 30.84523751699114 C 0.0 **** -0.24
29977 H 59.86795171516371 70.67610749934725 30.90559039608425 H 0.0 **** 0.06
29978 H 58.772068934815366 72.03378454487832 31.257132403149797 H 0.0 **** 0.06
29979 H 59.798978793347004 72.07136387951195 29.803336742305888 H 0.0 **** 0.06
29980 H 60.5337773110208 72.24559560410164 31.41501762085384 H 0.0 **** 0.06
29981 C 130.23291069528054 96.80676182511215 31.836366244168175 C 0.0 **** -0.24
29982 H 130.73432635735094 96.81556052127945 32.80368880524786 H 0.0 **** 0.06
29983 H 130.16248859502488 95.78107840556527 31.472882600759704 H 0.0 **** 0.06
29984 H 130.80247142545852 97.40560960323458 31.125867854080724 H 0.0 **** 0.06
29985 H 129.23073939011027 97.2230617263927 31.942418901385253 H 0.0 **** 0.06
29986 C 2.7447148587850734 16.42247881278979 77.25247342426445 C 0.0 **** -0.24
29987 H 2.846315284583767 16.083403939777725 78.28275570808049 H 0.0 **** 0.06
29988 H 3.726203093783738 16.439958277582207 76.77741613255142 H 0.0 **** 0.06
29989 H 2.3165699342715413 17.42479012011853 77.2400223947551 H 0.0 **** 0.06
29990 H 2.0897200186907128 15.741102969188717 76.70844967994529 H 0.0 **** 0.06
29991 C 116.75205274714989 91.30648102747351 115.9611774773303 C 0.0 **** -0.24
29992 H 117.25659807253615 90.87015487784943 116.82362550373637 H 0.0 **** 0.06
29993 H 117.25717827882494 90.99317051068125 115.04783704160752 H 0.0 **** 0.06
29994 H 116.77916884770352 92.39390432730835 116.03735088981031 H 0.0 **** 0.06
29995 H 115.71577393626717 90.9694205719379 115.93858251648868 H 0.0 **** 0.06
29996 C 33.97911959916519 128.77764864110185 118.43548472689989 C 0.0 **** -0.24
29997 H 32.98786950265878 129.19304310292085 118.61630435044412 H 0.0 **** 0.06
29998 H 34.67512493867969 129.5856682202603 118.20820949890049 H 0.0 **** 0.06
29999 H 33.93544509047787 128.08809829537427 117.59243851204303 H 0.0 **** 0.06
30000 H 34.31711203657085 128.2446157890796 119.32378204302722 H 0.0 **** 0.06
30001 C 13.56532188033458 114.86776420374375 4.976141065480615 C 0.0 **** -0.24
30002 H 14.508923133714347 114.3214972343805 5.005826203149642 H 0.0 **** 0.06
30003 H 12.816544961851434 114.27001691222583 4.456585144886965 H 0.0 **** 0.06
30004 H 13.70840025903317 115.81023047812997 4.4483324603310095 H 0.0 **** 0.06
30005 H 13.2298020530406 115.0670056082588 5.993775262219263 H 0.0 **** 0.06
30006 C 22.646638826691174 4.380060885106445 2.4428971888773994 C 0.0 **** -0.24
30007 H 22.897498404247017 5.345329792624284 2.0035323604378448 H 0.0 **** 0.06
30008 H 22.626627355954724 4.469461763525203 3.5286080353722156 H 0.0 **** 0.06
30009 H 23.39583901018085 3.6435393775068405 2.151565349522258 H 0.0 **** 0.06
30010 H 21.66658151437025 4.062819746668538 2.0856076434189212 H 0.0 **** 0.06
30011 C 14.949616349106414 13.12852941343067 30.355399434666495 C 0.0 **** -0.24
30012 H 14.83245153862211 12.323647577079385 31.081313146876944 H 0.0 **** 0.06
30013 H 15.63318976260566 13.879150214291087 30.75403703157893 H 0.0 **** 0.06
30014 H 13.979952155851329 13.586044381429872 30.161687221724428 H 0.0 **** 0.06
30015 H 15.353340204392786 12.724804698033324 29.427960286643525 H 0.0 **** 0.06
30016 C 71.54512940738067 58.9526828427646 79.78829322270404 C 0.0 **** -0.24
30017 H 71.91985761783205 59.96134464476242 79.61012401360229 H 0.0 **** 0.06
30018 H 72.2671178708285 58.22679062351682 79.41240325159477 H 0.0 **** 0.06
30019 H 70.59484885131924 58.82188459290093 79.27185282294595 H 0.0 **** 0.06
30020 H 71.4019063197487 58.80255151728201 80.85825293370789 H 0.0 **** 0.06
30021 C 65.28916054184833 109.51232664628333 97.39221425371433 C 0.0 **** -0.24
30022 H 65.32026567992123 109.41170735252427 96.30715512821133 H 0.0 **** 0.06
30023 H 65.04365470818732 108.5491314283775 97.8396893107012 H 0.0 **** 0.06
30024 H 64.52943498210615 110.24399698372133 97.66706084966273 H 0.0 **** 0.06
30025 H 66.26175080069278 109.84449365481328 97.75332678778393 H 0.0 **** 0.06
30026 C 17.86183470622055 62.780809328457906 97.60451008130498 C 0.0 **** -0.24
30027 H 16.928188311747363 62.86362928359165 98.16176888368845 H 0.0 **** 0.06
30028 H 18.694004041055734 63.067937617250095 98.24636018139506 H 0.0 **** 0.06
30029 H 17.82597329081247 63.440862766677014 96.737425015445 H 0.0 **** 0.06
30030 H 17.995725706914925 61.75086117994698 97.27282182017107 H 0.0 **** 0.06
30031 C 128.5475260586786 97.73854233761779 92.14915675550728 C 0.0 **** -0.24
30032 H 127.79881005773353 97.21229282916943 92.74065809407422 H 0.0 **** 0.06
30033 H 128.97675317917572 97.0540442109662 91.41575538271834 H 0.0 **** 0.06
30034 H 129.3347128908021 98.1081067780786 92.80599239527804 H 0.0 **** 0.06
30035 H 128.08021157106913 98.57731289597507 91.63404109563108 H 0.0 **** 0.06
30036 C 88.92197005946937 4.442886229007797 66.5062570514542 C 0.0 **** -0.24
30037 H 89.03128765631487 3.5578327227827913 67.13218433752257 H 0.0 **** 0.06
30038 H 89.42922625887581 5.285740935782172 66.97644125468098 H 0.0 **** 0.06
30039 H 87.86293380600443 4.674739378868111 66.38807309645023 H 0.0 **** 0.06
30040 H 89.36280415677584 4.251803717330176 65.52777361146944 H 0.0 **** 0.06
30041 C 106.5093731624347 82.3033552602258 14.610870915048167 C 0.0 **** -0.24
30042 H 106.68899095493504 82.55916416754135 13.56624689070955 H 0.0 **** 0.06
30043 H 105.7646317642265 81.50906042997198 14.666773155943872 H 0.0 **** 0.06
30044 H 106.14463638750678 83.18230955975264 15.14142010092857 H 0.0 **** 0.06
30045 H 107.43914220001568 81.96328439423672 15.065907574914434 H 0.0 **** 0.06
30046 C 27.25154453830909 47.98502159210919 76.92021502054565 C 0.0 **** -0.24
30047 H 28.237036119871938 48.40003534471626 76.70884333387663 H 0.0 **** 0.06
30048 H 26.483686053402238 48.657862128018664 76.53675957269994 H 0.0 **** 0.06
30049 H 27.129436212123288 47.87089026473234 77.99807713313075 H 0.0 **** 0.06
30050 H 27.156860634009895 47.01220339513101 76.43929537317611 H 0.0 **** 0.06
30051 C 121.34532587236703 37.53658311469915 41.26014144771141 C 0.0 **** -0.24
30052 H 122.17964033619234 37.86790687597793 40.64021798636841 H 0.0 **** 0.06
30053 H 120.5663196608661 38.29975957289256 41.25810843687485 H 0.0 **** 0.06
30054 H 121.69362591627242 37.37578657342298 42.280955174986616 H 0.0 **** 0.06
30055 H 120.94360785676741 36.60520627317729 40.861398592573906 H 0.0 **** 0.06
30056 C 81.54968537206162 106.3924976673332 68.097016021819 C 0.0 **** -0.24
30057 H 81.25199333870063 106.02311998324575 69.07855392683496 H 0.0 **** 0.06
30058 H 80.82310965614266 106.06828346042826 67.35122450183451 H 0.0 **** 0.06
30059 H 82.53243316685027 105.99625458128929 67.84291325421054 H 0.0 **** 0.06
30060 H 81.59010869957336 107.48179532426232 68.11608569890939 H 0.0 **** 0.06
30061 C 114.95509460602224 103.6415774339045 53.1520623633553 C 0.0 **** -0.24
30062 H 115.60409027466008 103.14275951863304 53.871593012112356 H 0.0 **** 0.06
30063 H 115.21905041184218 104.69840187695046 53.09682143192353 H 0.0 **** 0.06
30064 H 113.91696400729887 103.54347886466255 53.470101056569774 H 0.0 **** 0.06
30065 H 115.08035656230135 103.18362229676274 52.17121040313725 H 0.0 **** 0.06
30066 C 57.213289345819476 131.37962228418527 7.552828324688164 C 0.0 **** -0.24
30067 H 57.49873806354604 130.49532761532055 6.980906001647156 H 0.0 **** 0.06
30068 H 56.194533864850996 131.66681059408722 7.2921614586346095 H 0.0 **** 0.06
30069 H 57.893473114834904 132.19820263599607 7.318138538009862 H 0.0 **** 0.06
30070 H 57.26755299833704 131.15589175876445 8.61753678263105 H 0.0 **** 0.06
30071 C 26.761385136393784 87.91582748222697 98.07924973086281 C 0.0 **** -0.24
30072 H 27.159244371271 87.74629455068012 97.07941693926664 H 0.0 **** 0.06
30073 H 26.264929769840393 88.88613119875049 98.11329199206044 H 0.0 **** 0.06
30074 H 27.577338185604106 87.90009798647023 98.8027421838906 H 0.0 **** 0.06
30075 H 26.04476306673422 87.13173362191857 98.322797814673 H 0.0 **** 0.06
30076 C 83.72302843319906 111.50212145415048 120.81908594433946 C 0.0 **** -0.24
30077 H 83.34583867516122 112.37519030992135 121.35062585146449 H 0.0 **** 0.06
30078 H 83.6368849393754 110.62280834326896 121.45725269569475 H 0.0 **** 0.06
30079 H 84.76929600891948 111.65997610425677 120.55676334637634 H 0.0 **** 0.06
30080 H 83.1391947448725 111.35021127821767 119.9102522583593 H 0.0 **** 0.06
30081 C 85.25550647937843 89.38844376292354 77.41703898175177 C 0.0 **** -0.24
30082 H 84.71269180114287 89.00986885715781 76.55233254857251 H 0.0 **** 0.06
30083 H 85.4701340553443 88.56619909972352 78.10021598330775 H 0.0 **** 0.06
30084 H 84.6494778251873 90.13721008776167 77.927508707995 H 0.0 **** 0.06
30085 H 86.19152223971412 89.84199030641582 77.08882691864466 H 0.0 **** 0.06
30086 C 60.69511657849776 78.0441385419228 119.2848632886259 C 0.0 **** -0.24
30087 H 60.67132227100359 78.80804734202263 118.50832404742766 H 0.0 **** 0.06
30088 H 61.52899935387961 77.36637812227262 119.10147461981529 H 0.0 **** 0.06
30089 H 59.76059213739609 77.48308973492612 119.27092139360991 H 0.0 **** 0.06
30090 H 60.81997776932141 78.51954884246038 120.25748436982582 H 0.0 **** 0.06
30091 C 23.706331739306094 22.133184673703084 127.27059793720991 C 0.0 **** -0.24
30092 H 23.437146843407902 23.188698808804332 127.32101133883418 H 0.0 **** 0.06
30093 H 24.47963588610145 21.9918750389826 126.51426703498066 H 0.0 **** 0.06
30094 H 22.826807974698383 21.546688195018334 127.00506284093092 H 0.0 **** 0.06
30095 H 24.082579180509676 21.80776675687852 128.2398043367001 H 0.0 **** 0.06
30096 C 68.27542065123663 6.2450522723082145 87.10647819973931 C 0.0 **** -0.24
30097 H 68.20080590526982 5.623807550716123 86.21405022510964 H 0.0 **** 0.06
30098 H 69.2432980948434 6.746256070543666 87.12022855553266 H 0.0 **** 0.06
30099 H 68.17596285723056 5.620891209712852 87.99376119510151 H 0.0 **** 0.06
30100 H 67.48018919402847 6.991232721175663 87.095625349253 H 0.0 **** 0.06
30101 C 20.69538980608587 73.96989301113058 62.41132494772654 C 0.0 **** -0.24
30102 H 21.214958010153225 73.33703234285514 63.130025348694716 H 0.0 **** 0.06
30103 H 20.210073649148626 74.79336164486415 62.93622850815778 H 0.0 **** 0.06
30104 H 19.943597752433277 73.3811343388835 61.88542665963007 H 0.0 **** 0.06
30105 H 21.411990680805303 74.36807740372831 61.69327730502489 H 0.0 **** 0.06
30106 C 31.15974264197689 3.066584110412066 97.0161567053738 C 0.0 **** -0.24
30107 H 30.51481137046352 2.292506706038523 97.430080385567 H 0.0 **** 0.06
30108 H 32.105078238354935 2.6230041727564526 96.70188841036615 H 0.0 **** 0.06
30109 H 31.349486780862463 3.8257686060891274 97.77549270784371 H 0.0 **** 0.06
30110 H 30.670035718221413 3.526396871333702 96.15726413103746 H 0.0 **** 0.06
30111 C 22.01524690415617 8.975577739860853 82.84887487494947 C 0.0 **** -0.24
30112 H 21.536300918902306 9.954699631327003 82.85536541492957 H 0.0 **** 0.06
30113 H 23.097631484437258 9.100099268374578 82.86083437179016 H 0.0 **** 0.06
30114 H 21.721738266032283 8.433777098175995 81.9490644149783 H 0.0 **** 0.06
30115 H 21.70370338301533 8.412839651149 83.72897234068134 H 0.0 **** 0.06
30116 C 92.16375314353006 97.03323803586426 124.58739583984467 C 0.0 **** -0.24
30117 H 92.76713746713317 97.54891959928153 125.3351825709428 H 0.0 **** 0.06
30118 H 92.59318100970646 97.19710800223999 123.59893875261398 H 0.0 **** 0.06
30119 H 91.14547647561007 97.42245020623375 124.61053915937703 H 0.0 **** 0.06
30120 H 92.15034435246257 95.9652897042995 124.80517928328082 H 0.0 **** 0.06
30121 C 25.529218749502483 11.542342413693845 14.300865608694863 C 0.0 **** -0.24
30122 H 26.552046075895554 11.359223089554874 13.972602595518254 H 0.0 **** 0.06
30123 H 24.834265442278493 11.16925953170184 13.547697508908783 H 0.0 **** 0.06
30124 H 25.377105630633295 12.612875447147502 14.435942082618396 H 0.0 **** 0.06
30125 H 25.35247385283121 11.028623306927386 15.24506204774741 H 0.0 **** 0.06
30126 C 32.39420911776469 54.53785726862216 129.39479659043428 C 0.0 **** -0.24
30127 H 32.32275809488806 54.70804556131954 128.3203768520736 H 0.0 **** 0.06
30128 H 33.07956478315066 53.71269885916895 129.58747055196324 H 0.0 **** 0.06
30129 H 31.40819747843804 54.291068999496645 129.7888710425505 H 0.0 **** 0.06
30130 H 32.76449743695106 55.440047293157136 129.88124058818443 H 0.0 **** 0.06
30131 C 117.43777940134345 8.680801714565064 11.53711494798705 C 0.0 **** -0.24
30132 H 116.68249222801848 9.296459045518134 12.025204469454366 H 0.0 **** 0.06
30133 H 117.11561393725995 7.638917124542104 11.542118345442589 H 0.0 **** 0.06
30134 H 118.38296798772734 8.77262417914136 12.07217310642119 H 0.0 **** 0.06
30135 H 117.5687348021817 9.01611276078873 10.50828102252791 H 0.0 **** 0.06
30136 C 123.11883551126583 2.573316101317232 63.48533143399595 C 0.0 **** -0.24
30137 H 122.5578736165612 1.718629735984564 63.10644218861887 H 0.0 **** 0.06
30138 H 123.48027251841316 2.3536443968259846 64.48962056842413 H 0.0 **** 0.06
30139 H 122.46919410624807 3.447864543178582 63.51558229873149 H 0.0 **** 0.06
30140 H 123.96606951389938 2.7721984081923665 62.8290430573453 H 0.0 **** 0.06
30141 C 118.56089910058373 50.267146681544844 35.116816231744814 C 0.0 **** -0.24
30142 H 118.36525405948478 49.730852199853004 34.1886356046754 H 0.0 **** 0.06
30143 H 118.74669055465564 49.55102480656987 35.91768768669993 H 0.0 **** 0.06
30144 H 117.69607883661877 50.88061189132071 35.37032841828991 H 0.0 **** 0.06
30145 H 119.43543209783873 50.90571004385065 34.98970226743247 H 0.0 **** 0.06
30146 C 17.306547258108857 3.772783450921395 58.72592983919688 C 0.0 **** -0.24
30147 H 16.3189750638955 4.201534588916047 58.89458232230744 H 0.0 **** 0.06
30148 H 17.225640281865758 2.9383971416581858 58.028420223573264 H 0.0 **** 0.06
30149 H 17.71485097523702 3.418039162467892 59.672373517344695 H 0.0 **** 0.06
30150 H 17.965715489897867 4.533699784183625 58.30750821017337 H 0.0 **** 0.06
30151 C 130.6722543795308 54.6774653588528 99.21029551490471 C 0.0 **** -0.24
30152 H 131.54597963167168 54.41181205696002 99.80591670156127 H 0.0 **** 0.06
30153 H 130.6328081406822 55.75940580881034 99.08542397200836 H 0.0 **** 0.06
30154 H 129.7700685981701 54.33736031584212 99.7188723968307 H 0.0 **** 0.06
30155 H 130.7404335561012 54.199481126956954 98.23335195996412 H 0.0 **** 0.06
30156 C 36.178422979383356 106.0418955273177 107.81843831504875 C 0.0 **** -0.24
30157 H 35.23944149829032 106.59555350331476 107.79944600209802 H 0.0 **** 0.06
30158 H 36.67862230706737 106.20729057331397 108.77260033877593 H 0.0 **** 0.06
30159 H 36.81907086773134 106.38777211117534 107.00722149128114 H 0.0 **** 0.06
30160 H 35.975877574221556 104.97834405652196 107.69286092076388 H 0.0 **** 0.06
30161 C 32.914015242012646 50.15585503246092 81.31037520428279 C 0.0 **** -0.24
30162 H 33.14972961918041 51.210362053758686 81.16884883966053 H 0.0 **** 0.06
30163 H 33.39776389585633 49.794719581900964 82.21803620726473 H 0.0 **** 0.06
30164 H 33.2742352477856 49.58493070849025 80.45475144829776 H 0.0 **** 0.06
30165 H 31.83513209717465 50.03323499979487 81.40043909512723 H 0.0 **** 0.06
30166 C 102.81079984699305 124.1539783251892 15.316018095282374 C 0.0 **** -0.24
30167 H 101.73529783687101 123.99112528488524 15.25143990548537 H 0.0 **** 0.06
30168 H 103.28946127474278 123.78177501057189 14.409976146245086 H 0.0 **** 0.06
30169 H 103.20736891074436 123.62347141325256 16.18156095678323 H 0.0 **** 0.06
30170 H 103.0106282177081 125.22077833285152 15.420571746022517 H 0.0 **** 0.06
30171 C 66.29155006647281 22.100612119127582 53.176435037257704 C 0.0 **** -0.24
30172 H 65.96069739205413 21.687952911870795 54.129437105425666 H 0.0 **** 0.06
30173 H 65.72398641359251 21.641698668266592 52.36630970773848 H 0.0 **** 0.06
30174 H 67.35269653220537 21.89208480984243 53.040135363889135 H 0.0 **** 0.06
30175 H 66.12851394787323 23.178280249440846 53.1712696784914 H 0.0 **** 0.06
30176 C 39.20456556177086 80.20880517770621 1.5961364934686912 C 0.0 **** -0.24
30177 H 38.62740647766417 80.83315898880572 2.2775524698834033 H 0.0 **** 0.06
30178 H 38.73888977090496 79.22654919095889 1.521014858277681 H 0.0 **** 0.06
30179 H 40.22122310713496 80.10235181527325 1.9745901646485322 H 0.0 **** 0.06
30180 H 39.230739611007365 80.67515561897353 0.6103782423563757 H 0.0 **** 0.06
30181 C 113.00402726799078 86.09392556338526 97.94245771354295 C 0.0 **** -0.24
30182 H 112.98357526945512 86.52849572941335 98.94203490581421 H 0.0 **** 0.06
30183 H 112.05053025795365 86.27806745385305 97.4468053078794 H 0.0 **** 0.06
30184 H 113.17430435282333 85.01922873757923 98.01708060061799 H 0.0 **** 0.06
30185 H 113.80861650423307 86.54981167624817 97.36429585202345 H 0.0 **** 0.06
30186 C 11.017049808948997 110.52320784785223 134.72905856462242 C 0.0 **** -0.24
30187 H 10.553787064464586 110.14233215416996 135.63866361576996 H 0.0 **** 0.06
30188 H 10.303457036394803 110.46183723996572 133.9061708693465 H 0.0 **** 0.06
30189 H 11.896815073710144 109.92499034071085 134.49187940230078 H 0.0 **** 0.06
30190 H 11.311504725314933 111.56168659440729 134.87806602057148 H 0.0 **** 0.06
30191 C 91.9196002358969 39.93608176677657 82.15251134374239 C 0.0 **** -0.24
30192 H 92.20012083261821 40.98892624005481 82.19219511465627 H 0.0 **** 0.06
30193 H 92.43282295442447 39.394019860361965 82.94656447563747 H 0.0 **** 0.06
30194 H 92.20525791519464 39.520748230323306 81.18519966491004 H 0.0 **** 0.06
30195 H 90.841433575346 39.84189712208672 82.28471572563666 H 0.0 **** 0.06
30196 C 93.50389290476872 121.75133233504505 38.577968806028466 C 0.0 **** -0.24
30197 H 93.02269577040681 120.87434914530814 38.14567395517314 H 0.0 **** 0.06
30198 H 93.60469897320712 121.61681943107806 39.65529907751596 H 0.0 **** 0.06
30199 H 92.897077616933 122.63463209563838 38.37710608411021 H 0.0 **** 0.06
30200 H 94.49109925852787 121.87952866815544 38.133796107314566 H 0.0 **** 0.06
30201 C 59.20116973145187 84.76589957887525 44.25926320415988 C 0.0 **** -0.24
30202 H 60.2013868768951 84.72542223577724 44.69057319528142 H 0.0 **** 0.06
30203 H 59.20695262669494 84.27525071000797 43.28573234827422 H 0.0 **** 0.06
30204 H 58.89887581145308 85.80668227042881 44.14044457877702 H 0.0 **** 0.06
30205 H 58.499579159817046 84.25679874103116 44.91983799419947 H 0.0 **** 0.06
30206 C 104.75591775717362 108.94227979521673 94.00669867235433 C 0.0 **** -0.24
30207 H 104.75828011178174 108.79259231086252 92.92728164789384 H 0.0 **** 0.06
30208 H 104.49352362159395 108.00686459458757 94.50301699598322 H 0.0 **** 0.06
30209 H 104.02537361919563 109.70866020253939 94.26605442166283 H 0.0 **** 0.06
30210 H 105.74698554255289 109.25994843014473 94.33124660654835 H 0.0 **** 0.06
30211 C 131.1074812745018 135.2960862030323 28.525929369333703 C 0.0 **** -0.24
30212 H 130.17405177675815 134.78085798843404 28.30331257222136 H 0.0 **** 0.06
30213 H 131.91584149205008 134.5668412868468 28.60201358961774 H 0.0 **** 0.06
30214 H 131.01110771409677 135.83117847672645 29.47057345623822 H 0.0 **** 0.06
30215 H 131.33110562968 136.0044017896543 27.728144158286263 H 0.0 **** 0.06
30216 C 3.9854393367624823 11.215543008601571 69.4259819960308 C 0.0 **** -0.24
30217 H 4.0222762785171255 11.851549306085246 68.54232650518188 H 0.0 **** 0.06
30218 H 3.0778277421624693 10.611870378197295 69.40123038075575 H 0.0 **** 0.06
30219 H 3.983708817340272 11.837579934021164 70.32104798764442 H 0.0 **** 0.06
30220 H 4.857435853661542 10.56187476052196 69.43882508606478 H 0.0 **** 0.06
30221 C 134.46867549212087 105.6784374134109 3.5849832381907447 C 0.0 **** -0.24
30222 H 135.12695802439785 106.46111941589243 3.963134121654889 H 0.0 **** 0.06
30223 H 134.98176992605323 104.71788028917786 3.635114973312028 H 0.0 **** 0.06
30224 H 134.2033789773433 105.89615485971228 2.5503253508529156 H 0.0 **** 0.06
30225 H 133.5644480698847 105.64089924917477 4.191865996024461 H 0.0 **** 0.06
30226 C 54.4733972214749 70.07868554308999 19.096817188667018 C 0.0 **** -0.24
30227 H 55.44010872514025 69.57857723933404 19.032866863525413 H 0.0 **** 0.06
30228 H 54.58131925441637 71.00655044460171 19.656999785328495 H 0.0 **** 0.06
30229 H 53.761175295657836 69.42793911382574 19.603521289882508 H 0.0 **** 0.06
30230 H 54.112701069442494 70.29920263643479 18.092486801212488 H 0.0 **** 0.06
30231 C 31.533331756885616 46.70665285682895 84.90946471345873 C 0.0 **** -0.24
30232 H 30.875921298691914 47.144489647298585 84.15865217137437 H 0.0 **** 0.06
30233 H 31.005769039971902 45.91025244534546 85.43473325792024 H 0.0 **** 0.06
30234 H 31.83442412079264 47.475225440454665 85.62215587303642 H 0.0 **** 0.06
30235 H 32.41855185112846 46.29648143352131 84.42189326369136 H 0.0 **** 0.06
30236 C 85.97878675076322 46.90857966711907 98.77087085301122 C 0.0 **** -0.24
30237 H 85.37633736250041 46.001756013528194 98.8210469761525 H 0.0 **** 0.06
30238 H 86.09305412825023 47.32426458113024 99.77307850667512 H 0.0 **** 0.06
30239 H 85.4849019494331 47.63806764785579 98.12939043534965 H 0.0 **** 0.06
30240 H 86.96097071784561 46.67171375279838 98.36191333411995 H 0.0 **** 0.06
30241 C 110.28372550477525 118.1431937947363 94.93694790388773 C 0.0 **** -0.24
30242 H 110.8923987135729 119.01695205661403 94.70117777764526 H 0.0 **** 0.06
30243 H 109.5975803662194 118.38740212879907 95.74817118969075 H 0.0 **** 0.06
30244 H 110.93237016154342 117.32189549935381 95.24400872606016 H 0.0 **** 0.06
30245 H 109.71589578052826 117.84788038059227 94.05542853976155 H 0.0 **** 0.06
30246 C 128.54181211060973 113.52780493590112 87.29128583273553 C 0.0 **** -0.24
30247 H 128.672581155054 112.9698036712079 86.36395087599115 H 0.0 **** 0.06
30248 H 127.8778486524883 112.97540672935466 87.9566833374767 H 0.0 **** 0.06
30249 H 128.1081079602664 114.50240024678135 87.07026843357488 H 0.0 **** 0.06
30250 H 129.51032462042753 113.6618969292833 87.77355955154428 H 0.0 **** 0.06
30251 C 117.48646124479814 115.8410760820604 77.86342524095343 C 0.0 **** -0.24
30252 H 117.23545410360106 116.8443147078801 77.51847777520328 H 0.0 **** 0.06
30253 H 118.1795644918027 115.37896903227409 77.16156132726516 H 0.0 **** 0.06
30254 H 116.57909866758015 115.24060333285308 77.92778119459228 H 0.0 **** 0.06
30255 H 117.9521102669901 115.9017493230154 78.84763551206225 H 0.0 **** 0.06
30256 C 32.62942371738857 64.17285968677392 46.614527979724016 C 0.0 **** -0.24
30257 H 33.11988061494995 64.58205244763379 47.496684025515265 H 0.0 **** 0.06
30258 H 33.12629737899022 63.249003908505145 46.316850017743946 H 0.0 **** 0.06
30259 H 32.686735319621434 64.89517581883361 45.79919067152355 H 0.0 **** 0.06
30260 H 31.583395793303183 63.96635501716595 46.84298696394393 H 0.0 **** 0.06
30261 C 40.28455013671851 80.40775113445159 6.136400070527106 C 0.0 **** -0.24
30262 H 39.91265193338859 79.40317582620412 5.93067861565914 H 0.0 **** 0.06
30263 H 41.26020237768773 80.34117911378014 6.6192209429319675 H 0.0 **** 0.06
30264 H 39.586493296242566 80.9241159683871 6.796516075631732 H 0.0 **** 0.06
30265 H 40.3766883216021 80.95946203219478 5.201991913304635 H 0.0 **** 0.06
30266 C 132.27034925901523 134.6861766708126 53.30483514749055 C 0.0 **** -0.24
30267 H 133.06009798586877 134.13951745135302 53.81890970264479 H 0.0 **** 0.06
30268 H 132.61541756877375 134.97472171307624 52.31141543080102 H 0.0 **** 0.06
30269 H 132.01694647133894 135.58034184286024 53.87526374241635 H 0.0 **** 0.06
30270 H 131.38858833558245 134.05207304744002 53.21404793445767 H 0.0 **** 0.06
30271 C 102.48147652304225 52.89543934567041 38.05187107123152 C 0.0 **** -0.24
30272 H 101.45358430274874 52.72774451374187 38.374119590822545 H 0.0 **** 0.06
30273 H 102.55679838916835 52.73347918223567 36.977183430045045 H 0.0 **** 0.06
30274 H 103.14258994081001 52.20259910825689 38.57156085675933 H 0.0 **** 0.06
30275 H 102.7725439790261 53.919902800193086 38.28685083893515 H 0.0 **** 0.06
30276 C 126.2700323890839 21.267413329158813 126.63084272092058 C 0.0 **** -0.24
30277 H 126.17395801874798 21.738597842982003 125.65252225047097 H 0.0 **** 0.06
30278 H 125.60238670483496 21.760018127391803 127.33816997447958 H 0.0 **** 0.06
30279 H 127.2997007152938 21.35829549467806 126.97814903814314 H 0.0 **** 0.06
30280 H 126.00490238873049 20.212546180815607 126.55398907325183 H 0.0 **** 0.06
30281 C 93.76112623817413 88.19547885465423 102.99832653634769 C 0.0 **** -0.24
30282 H 93.71827646189476 87.45221392344698 103.79449059170582 H 0.0 **** 0.06
30283 H 92.7571457147025 88.36984272270652 102.60899827155666 H 0.0 **** 0.06
30284 H 94.40356660517529 87.83228129800665 102.19573697529987 H 0.0 **** 0.06
30285 H 94.16490696708054 89.12797619479446 103.39339478577423 H 0.0 **** 0.06
30286 C 6.837243229118059 109.39266676560014 86.23409533799983 C 0.0 **** -0.24
30287 H 5.751604964739585 109.49080214396622 86.24348036769337 H 0.0 **** 0.06
30288 H 7.128431262852587 108.52255330560843 86.82305814523838 H 0.0 **** 0.06
30289 H 7.286776060419726 110.28856732977926 86.66170666831553 H 0.0 **** 0.06
30290 H 7.18144994125808 109.26812663319642 85.20708093378553 H 0.0 **** 0.06
30291 C 92.50702715481809 24.085663747063336 110.39555362133325 C 0.0 **** -0.24
30292 H 92.09271083532566 23.400827306041208 111.13619263556444 H 0.0 **** 0.06
30293 H 91.69460492016321 24.592323743223176 109.8744712572778 H 0.0 **** 0.06
30294 H 93.10580271715857 23.524297664791277 109.67751179625489 H 0.0 **** 0.06
30295 H 93.13562821832697 24.822023737498142 110.8947205839373 H 0.0 **** 0.06
30296 C 38.20281989697884 127.40519437324365 53.23259112662328 C 0.0 **** -0.24
30297 H 38.68477187592772 127.19701835870099 54.188217168967356 H 0.0 **** 0.06
30298 H 38.57773832581401 126.7131548051624 52.47845819785232 H 0.0 **** 0.06
30299 H 38.42368479017318 128.42877210456965 52.93051767200018 H 0.0 **** 0.06
30300 H 37.12501154553769 127.28084318593099 53.335411276668594 H 0.0 **** 0.06
30301 C 72.80887948037758 57.4623978487963 64.99551712154042 C 0.0 **** -0.24
30302 H 73.55460940169283 58.245356456378786 65.13659089133859 H 0.0 **** 0.06
30303 H 73.28061924767712 56.590060541706094 64.54269894894492 H 0.0 **** 0.06
30304 H 72.01743193928125 57.82831395433023 64.34210437685863 H 0.0 **** 0.06
30305 H 72.38582510052866 57.1866695418059 65.96140787468767 H 0.0 **** 0.06
30306 C 134.6761111887721 37.529424081647846 109.4646035670919 C 0.0 **** -0.24
30307 H 134.63383033792488 38.46036067553666 110.02999763285098 H 0.0 **** 0.06
30308 H 135.71157836634143 37.31204121784759 109.20162733280465 H 0.0 **** 0.06
30309 H 134.08325782770396 37.62979293836335 108.5558131531685 H 0.0 **** 0.06
30310 H 134.27702107013317 36.7173436839842 110.07122495107353 H 0.0 **** 0.06
30311 C 45.15904895800077 50.397714170688914 39.688011602327435 C 0.0 **** -0.24
30312 H 45.31240470643607 51.232857762470644 39.00489064978086 H 0.0 **** 0.06
30313 H 45.38766013780602 50.71386079374281 40.70567475453055 H 0.0 **** 0.06
30314 H 45.81371325176383 49.57321753431745 39.406869308545254 H 0.0 **** 0.06
30315 H 44.12059324848596 50.071312363342486 39.63337962809305 H 0.0 **** 0.06
30316 C 68.08294308331408 64.00313223629435 38.46247799409085 C 0.0 **** -0.24
30317 H 68.89527179264422 63.291529244324224 38.313108207164476 H 0.0 **** 0.06
30318 H 68.44912438023677 65.0147260872767 38.28351078401613 H 0.0 **** 0.06
30319 H 67.71663949980334 63.92565133764711 39.48670819727573 H 0.0 **** 0.06
30320 H 67.27326614649772 63.78160556261609 37.76786356285385 H 0.0 **** 0.06
30321 C 64.4487092433276 17.53797093865262 63.87864052505091 C 0.0 **** -0.24
30322 H 64.04565377662152 17.959532430944364 64.7992388309028 H 0.0 **** 0.06
30323 H 63.90265931113581 16.628707256404397 63.62675741282041 H 0.0 **** 0.06
30324 H 65.50333598014936 17.302103432116752 64.01832944334697 H 0.0 **** 0.06
30325 H 64.34100467985404 18.26195217448091 63.070490171495976 H 0.0 **** 0.06
30326 C 92.30197968429148 26.35563743539368 35.41798708786527 C 0.0 **** -0.24
30327 H 92.59526791480793 25.45018265958251 35.94982329675745 H 0.0 **** 0.06
30328 H 91.26891847286235 26.26024563948976 35.08223413664908 H 0.0 **** 0.06
30329 H 92.95393643998992 26.49694015270896 34.55582062837408 H 0.0 **** 0.06
30330 H 92.38980731292511 27.213072194812227 36.08481313559602 H 0.0 **** 0.06
30331 C 133.64406617096625 84.6859712342611 22.191616971371346 C 0.0 **** -0.24
30332 H 132.86837600748714 84.50121747744944 21.447773621468592 H 0.0 **** 0.06
30333 H 133.9243243416463 85.73913560172441 22.170047603634657 H 0.0 **** 0.06
30334 H 134.51638607277113 84.07152876836443 21.966682420806258 H 0.0 **** 0.06
30335 H 133.26529391939715 84.42966911666961 23.1819169001527 H 0.0 **** 0.06
30336 C 61.44491604165631 134.73125254192422 37.62030353686566 C 0.0 **** -0.24
30337 H 60.92380581442862 134.0815318843738 38.323363459408654 H 0.0 **** 0.06
30338 H 61.58682296010613 135.71394061087796 38.06971830393968 H 0.0 **** 0.06
30339 H 60.8529996694125 134.82962842505836 36.71028416386258 H 0.0 **** 0.06
30340 H 62.41559912883014 134.2988115792595 37.377070657915226 H 0.0 **** 0.06
30341 C 27.484070179089663 75.13432639096635 49.118601505051174 C 0.0 **** -0.24
30342 H 28.542156604698683 75.03776490393973 48.87556025446169 H 0.0 **** 0.06
30343 H 27.290076468994307 74.67547195814485 50.08843661593187 H 0.0 **** 0.06
30344 H 26.88848208642591 74.63555764984248 48.35510785704983 H 0.0 **** 0.06
30345 H 27.215676990855535 76.19066916728491 49.15712625611721 H 0.0 **** 0.06
30346 C 3.8901621746326214 48.37841342018095 71.68720373599831 C 0.0 **** -0.24
30347 H 4.276085924418311 48.78254726645251 70.7512150788414 H 0.0 **** 0.06
30348 H 3.475480598999809 49.18762707443054 72.2886998181336 H 0.0 **** 0.06
30349 H 4.700196361555186 47.89560068862073 72.23481910510128 H 0.0 **** 0.06
30350 H 3.109881287080327 47.6479575932015 71.47402758486409 H 0.0 **** 0.06
30351 C 18.23752401996876 59.84048919897218 112.54513797902493 C 0.0 **** -0.24
30352 H 18.832559426424496 60.522470617140726 113.15310122118868 H 0.0 **** 0.06
30353 H 17.970845847634905 58.964847762241604 113.13655988201094 H 0.0 **** 0.06
30354 H 18.815746308197788 59.53144568108799 111.67521839533666 H 0.0 **** 0.06
30355 H 17.329183701804766 60.34705443472495 112.2166662772895 H 0.0 **** 0.06
30356 C 68.39170691363752 94.83013212463572 130.68694924496776 C 0.0 **** -0.24
30357 H 68.22067762319729 94.761629109843 129.61198113130126 H 0.0 **** 0.06
30358 H 67.96071172126351 93.95752558062097 131.17908041153987 H 0.0 **** 0.06
30359 H 67.92050114819948 95.73488756061647 131.07219959571904 H 0.0 **** 0.06
30360 H 69.46358332066153 94.86609488098819 130.88253228839392 H 0.0 **** 0.06
30361 C 75.38312412905586 58.00141428865267 27.8197057890765 C 0.0 **** -0.24
30362 H 75.33235152334234 58.846007158886835 28.50722968768369 H 0.0 **** 0.06
30363 H 76.20574852747512 58.151232007151805 27.12087549121687 H 0.0 **** 0.06
30364 H 74.4457401915281 57.92669546641619 27.268692628493703 H 0.0 **** 0.06
30365 H 75.54693309417235 57.08366584784321 28.38382940003158 H 0.0 **** 0.06
30366 C 128.31538326601907 106.31939255882999 16.426133759474794 C 0.0 **** -0.24
30367 H 128.23470050665657 107.385245988511 16.642468866741922 H 0.0 **** 0.06
30368 H 127.88529240093908 106.11349543067121 15.445788260018361 H 0.0 **** 0.06
30369 H 127.77670772048839 105.75363426272507 17.185558684577018 H 0.0 **** 0.06
30370 H 129.36584710413234 106.02705418867168 16.43143507361401 H 0.0 **** 0.06
30371 C 35.4129376360907 52.92638255039654 63.5620211128349 C 0.0 **** -0.24
30372 H 35.17546788911977 53.96952819124154 63.77233607752953 H 0.0 **** 0.06
30373 H 35.851660996764906 52.46862056096887 64.4480238135925 H 0.0 **** 0.06
30374 H 36.12365271377479 52.87563087981981 62.736784518786294 H 0.0 **** 0.06
30375 H 34.501253106369916 52.3945345456373 63.29052882360952 H 0.0 **** 0.06
30376 C 29.04572114927589 57.025083534853366 60.17174133830338 C 0.0 **** -0.24
30377 H 29.528666723252158 56.08407076853359 59.907827296480036 H 0.0 **** 0.06
30378 H 28.88115016485078 57.0585397787294 61.24926543844123 H 0.0 **** 0.06
30379 H 28.089114234398565 57.09970383620873 59.655227008647145 H 0.0 **** 0.06
30380 H 29.685281756164358 57.85659991595128 59.8757501250258 H 0.0 **** 0.06
30381 C 33.091416529739945 116.3494373026733 34.121488648928704 C 0.0 **** -0.24
30382 H 32.79451688219942 117.37814229294324 34.32715277061996 H 0.0 **** 0.06
30383 H 33.42205766353413 115.87459251989046 35.046249170316344 H 0.0 **** 0.06
30384 H 33.907592407908595 116.34463922661351 33.39839113165888 H 0.0 **** 0.06
30385 H 32.24241570219331 115.80143828233733 33.714334287865924 H 0.0 **** 0.06
30386 C 15.817530518489 125.94839941538413 119.17945546114635 C 0.0 **** -0.24
30387 H 16.391000617863767 126.1137645815677 120.09186901707292 H 0.0 **** 0.06
30388 H 16.198596606105724 125.0646205021099 118.66720302543396 H 0.0 **** 0.06
30389 H 15.91439448760594 126.81596258122903 118.52733925248228 H 0.0 **** 0.06
30390 H 14.768026253499706 125.79837627792489 119.43221207577875 H 0.0 **** 0.06
30391 C 129.1682898159621 7.952963079038113 54.453932778924354 C 0.0 **** -0.24
30392 H 130.07621517950827 8.546952650060405 54.3443333501034 H 0.0 **** 0.06
30393 H 129.3970849189608 7.037356228675094 54.99864639682181 H 0.0 **** 0.06
30394 H 128.77791357254625 7.701786630143147 53.466980951648736 H 0.0 **** 0.06
30395 H 128.42207602221458 8.527666755118162 55.00346054601718 H 0.0 **** 0.06
30396 C 84.59857292717993 52.97342407501455 75.01896895818926 C 0.0 **** -0.24
30397 H 83.9979879648442 52.288914970510874 75.61780953773832 H 0.0 **** 0.06
30398 H 85.63316201111545 52.94367935932138 75.36136019515325 H 0.0 **** 0.06
30399 H 84.20943098291526 53.98589464363221 75.12670919349512 H 0.0 **** 0.06
30400 H 84.55282445869341 52.675934533394965 73.97129528894227 H 0.0 **** 0.06
30401 C 113.71403314118308 27.80801199928493 1.4827691213424714 C 0.0 **** -0.24
30402 H 114.64140834392222 27.347490918600784 1.144768310432994 H 0.0 **** 0.06
30403 H 113.03557118480643 27.922074196387314 0.6366602024470467 H 0.0 **** 0.06
30404 H 113.93001150989619 28.787867466413104 1.9107302803251969 H 0.0 **** 0.06
30405 H 113.24981505883568 27.176641527644392 2.2395821136728955 H 0.0 **** 0.06
30406 C 59.942046918660424 108.56410716650265 30.840780415839923 C 0.0 **** -0.24
30407 H 59.5978267729613 108.16089871682323 31.793219129857846 H 0.0 **** 0.06
30408 H 60.08359678209388 109.64126181561451 30.93315786829772 H 0.0 **** 0.06
30409 H 59.19946734334894 108.35876961350661 30.070126085154094 H 0.0 **** 0.06
30410 H 60.888652921793835 108.0954131073488 30.568394475776024 H 0.0 **** 0.06
30411 C 30.800391174369622 84.64526751918032 109.69810870601486 C 0.0 **** -0.24
30412 H 31.05322494159151 85.65811116649314 110.0094972590444 H 0.0 **** 0.06
30413 H 30.08921247647794 84.68670940934683 108.8722675855163 H 0.0 **** 0.06
30414 H 30.354258906022494 84.1090692848351 110.53590434357002 H 0.0 **** 0.06
30415 H 31.703703206017792 84.12784472843327 109.37521385572296 H 0.0 **** 0.06
30416 C 135.798157494498 12.053321381730356 108.08198679255779 C 0.0 **** -0.24
30417 H 136.05200125577198 12.026141513458676 109.14100973693081 H 0.0 **** 0.06
30418 H 136.71331612407175 12.05243669263373 107.48942203894433 H 0.0 **** 0.06
30419 H 135.22790968243675 12.95826730532205 107.86864565591347 H 0.0 **** 0.06
30420 H 135.20008042409043 11.178565378825667 107.82871467428828 H 0.0 **** 0.06
30421 C 4.142335782361357 2.908265520116231 29.416182986118656 C 0.0 **** -0.24
30422 H 3.81248516297331 3.9432956961725836 29.512812312599863 H 0.0 **** 0.06
30423 H 4.0793438059852996 2.414619038673152 30.385657688145614 H 0.0 **** 0.06
30424 H 5.172784353959763 2.8873328515507524 29.062633007353213 H 0.0 **** 0.06
30425 H 3.5024953221447923 2.3890031012479085 28.70173295220326 H 0.0 **** 0.06
30426 C 20.64456696206161 33.59269106116244 120.30414745919461 C 0.0 **** -0.24
30427 H 21.418338712312377 34.36036120500037 120.30320523888444 H 0.0 **** 0.06
30428 H 20.39951738497897 33.3270029673908 121.33259853482828 H 0.0 **** 0.06
30429 H 21.007443577616044 32.71042729309377 119.77717188862715 H 0.0 **** 0.06
30430 H 19.754209182329163 33.97341084520755 119.8041319461276 H 0.0 **** 0.06
30431 C 117.63542045008475 77.88709116943836 85.97401679461274 C 0.0 **** -0.24
30432 H 116.71370577792905 78.44088006695102 85.79433930154732 H 0.0 **** 0.06
30433 H 118.45560132964204 78.36253302273208 85.43687678325676 H 0.0 **** 0.06
30434 H 117.51671278662516 76.86184694531259 85.62343893693884 H 0.0 **** 0.06
30435 H 117.85366617057034 77.88201404506732 87.04232205465934 H 0.0 **** 0.06
30436 C 130.99267973410414 64.42560323344215 110.64216250027727 C 0.0 **** -0.24
30437 H 130.1879438456649 65.06013045366241 110.27017131535158 H 0.0 **** 0.06
30438 H 130.93830215781594 64.37205748415045 111.72995615759277 H 0.0 **** 0.06
30439 H 131.95322532482012 64.84533216204157 110.34576109963658 H 0.0 **** 0.06
30440 H 130.88834144807643 63.42400015537413 110.22408727492257 H 0.0 **** 0.06
30441 C 129.3221564376712 69.65392774614409 66.65617726284182 C 0.0 **** -0.24
30442 H 129.79142679769615 69.40502949887917 67.60767556882567 H 0.0 **** 0.06
30443 H 128.43497796810658 70.26108376999218 66.83728774647471 H 0.0 **** 0.06
30444 H 129.03529624440193 68.73612800893335 66.1415803366641 H 0.0 **** 0.06
30445 H 130.0257435935589 70.21151453631285 66.03904997755473 H 0.0 **** 0.06
30446 C 18.605566938049037 67.05688011158415 34.591403940454455 C 0.0 **** -0.24
30447 H 17.818068190407374 67.16091498835405 35.338166655962254 H 0.0 **** 0.06
30448 H 19.431935365237145 67.72297714185697 34.840132801101674 H 0.0 **** 0.06
30449 H 18.210000052687363 67.31909162498962 33.60942018855573 H 0.0 **** 0.06
30450 H 18.9595075822197 66.0270369727479 34.577508032944266 H 0.0 **** 0.06
30451 C 112.81220944628856 8.366310752263018 14.018519735242869 C 0.0 **** -0.24
30452 H 112.90481510933995 8.70309746477534 15.051067538388253 H 0.0 **** 0.06
30453 H 112.86162652406821 9.226895477189771 13.35034909066869 H 0.0 **** 0.06
30454 H 111.85828370279609 7.856406658797653 13.88693890241452 H 0.0 **** 0.06
30455 H 113.62689752067362 7.679203258636278 13.786779013754725 H 0.0 **** 0.06
30456 C 26.34782105192204 98.28092672808488 9.775165888585132 C 0.0 **** -0.24
30457 H 25.788664882490366 97.50173571908252 10.29260843177913 H 0.0 **** 0.06
30458 H 25.760594999142853 99.19931580740092 9.759929667292408 H 0.0 **** 0.06
30459 H 26.552992744610492 97.96327547534898 8.75265361981981 H 0.0 **** 0.06
30460 H 27.287788483337863 98.45995636679231 10.29582183250946 H 0.0 **** 0.06
30461 C 112.8002987922167 68.23471793919856 23.815040232963383 C 0.0 **** -0.24
30462 H 112.46557787760108 68.3595348210622 24.84462932438595 H 0.0 **** 0.06
30463 H 113.27662634961263 69.15356843467748 23.474821432466058 H 0.0 **** 0.06
30464 H 111.9429056991116 68.01186696365738 23.179254396015722 H 0.0 **** 0.06
30465 H 113.51510906104778 67.41300199596753 23.76256844872455 H 0.0 **** 0.06
30466 C 17.32556201187802 12.979101090482118 116.14299233397054 C 0.0 **** -0.24
30467 H 16.648265854845363 12.204270446481303 116.50140051605854 H 0.0 **** 0.06
30468 H 18.071520429139085 12.533135646908761 115.48449938481929 H 0.0 **** 0.06
30469 H 17.82319729606924 13.447517181489957 116.99155907025715 H 0.0 **** 0.06
30470 H 16.758620575182306 13.7307873342304 115.59345955436606 H 0.0 **** 0.06
30471 C 130.89437188454198 80.1469828697023 130.94549652043926 C 0.0 **** -0.24
30472 H 129.95071849219994 79.72713313326165 130.59531428911728 H 0.0 **** 0.06
30473 H 131.67868007118582 79.93028717084553 130.22036225999378 H 0.0 **** 0.06
30474 H 131.15445172454974 79.70292606919858 131.90649969853257 H 0.0 **** 0.06
30475 H 130.79188448857326 81.22587453978156 131.0597643417359 H 0.0 **** 0.06
30476 C 36.34309973903558 106.69664900782753 35.51960411782761 C 0.0 **** -0.24
30477 H 37.356019732519485 107.06649628650872 35.35745855161281 H 0.0 **** 0.06
30478 H 36.314739883551454 106.10686962036569 36.43585957217033 H 0.0 **** 0.06
30479 H 36.045130525746515 106.07483176376817 34.67621947151832 H 0.0 **** 0.06
30480 H 35.65976985945923 107.54128870442504 35.608767618747834 H 0.0 **** 0.06
30481 C 0.07724238956964058 136.65984526813543 40.44654950852778 C 0.0 **** -0.24
30482 H 1.0930086446173988 136.56301586617852 40.83003751267313 H 0.0 **** 0.06
30483 H -0.1962471378801922 135.75049988140017 39.911400457071835 H 0.0 **** 0.06
30484 H 0.024772540498663176 137.51133252654606 39.768363392605195 H 0.0 **** 0.06
30485 H -0.6110569187493198 136.81418795764034 41.27801177195559 H 0.0 **** 0.06
30486 C 97.0013282142969 72.83512744069577 105.66839713403114 C 0.0 **** -0.24
30487 H 96.32686458575927 72.62251847945134 104.8395586348621 H 0.0 **** 0.06
30488 H 96.64179386961956 72.33365611532463 106.56692739302935 H 0.0 **** 0.06
30489 H 97.03688049964137 73.91096084480898 105.84155489310052 H 0.0 **** 0.06
30490 H 98.00068779198278 72.47311562301212 105.42523468388428 H 0.0 **** 0.06
30491 C 132.9489602427817 104.18181761135102 134.16560601078507 C 0.0 **** -0.24
30492 H 132.62358999275534 105.22236790163726 134.17074219704108 H 0.0 **** 0.06
30493 H 132.0784846465275 103.52995710431072 134.08119478490053 H 0.0 **** 0.06
30494 H 133.47893081080025 103.96246112244641 135.09270741204892 H 0.0 **** 0.06
30495 H 133.61330101242532 104.01328427623223 133.31785372735933 H 0.0 **** 0.06
30496 C 19.98867091076542 38.77283944377382 75.64608777158696 C 0.0 **** -0.24
30497 H 21.028577573935387 38.45100933255321 75.70585058688951 H 0.0 **** 0.06
30498 H 19.63025061731844 39.02764519399125 76.64330488549194 H 0.0 **** 0.06
30499 H 19.38248007144007 37.96530821172587 75.236246324739 H 0.0 **** 0.06
30500 H 19.91641090250353 39.646594044606445 74.99932939486166 H 0.0 **** 0.06
30501 C 15.153879763954194 23.84333171845219 65.7804343425747 C 0.0 **** -0.24
30502 H 15.420311738285932 24.80347808992225 65.33878062976997 H 0.0 **** 0.06
30503 H 14.526412212212506 23.285527729447637 65.08487681864112 H 0.0 **** 0.06
30504 H 14.6083909008413 24.01012000397347 66.70945137468225 H 0.0 **** 0.06
30505 H 16.06066869345989 23.274799828114553 65.98737491105524 H 0.0 **** 0.06
30506 C 121.4962517551152 39.24788494148038 33.488324104880746 C 0.0 **** -0.24
30507 H 121.70981934286839 40.30064474444703 33.30064407780005 H 0.0 **** 0.06
30508 H 120.80124339975933 39.161154310557464 34.323051131880725 H 0.0 **** 0.06
30509 H 122.42340098271855 38.72791673862733 33.73110276382892 H 0.0 **** 0.06
30510 H 121.05323691188819 38.803745546404514 32.596751268160716 H 0.0 **** 0.06
30511 C 105.45325880034113 66.34568344702056 70.4151777810992 C 0.0 **** -0.24
30512 H 106.26504800872604 66.80887739701662 69.85515218803181 H 0.0 **** 0.06
30513 H 104.52407111988981 66.87854849951053 70.2145434660182 H 0.0 **** 0.06
30514 H 105.67534437497586 66.3905944518172 71.4813996454771 H 0.0 **** 0.06
30515 H 105.34934177326025 65.30509140423703 70.1091018473141 H 0.0 **** 0.06
30516 C 121.14809394490278 110.13345143451465 7.413960815885176 C 0.0 **** -0.24
30517 H 121.89677998717671 110.30963226893135 6.641493603905065 H 0.0 **** 0.06
30518 H 121.02374045682197 111.03554825897928 8.01234326394001 H 0.0 **** 0.06
30519 H 121.47315109749277 109.31329727753172 8.054003050430012 H 0.0 **** 0.06
30520 H 120.19848085585619 109.87399502700313 6.945960371680467 H 0.0 **** 0.06
30521 C 61.68305616365927 0.0420511543952955 54.059251490232356 C 0.0 **** -0.24
30522 H 60.931053499561756 0.8215944173423964 53.93880092872098 H 0.0 **** 0.06
30523 H 62.29664784064302 -0.012767417818537297 53.159042446662056 H 0.0 **** 0.06
30524 H 61.19133733335781 -0.9156302796245939 54.22280519073951 H 0.0 **** 0.06
30525 H 62.31498108502987 0.2772998468252865 54.915632834228546 H 0.0 **** 0.06
30526 C 15.250411038801076 76.33262325832871 73.06020741969775 C 0.0 **** -0.24
30527 H 14.796431817520784 77.1361459691539 73.63927747914045 H 0.0 **** 0.06
30528 H 16.298642170103903 76.22764949456203 73.34245576710612 H 0.0 **** 0.06
30529 H 15.182062438719186 76.56777758541357 71.99761059186281 H 0.0 **** 0.06
30530 H 14.724793656369116 75.39921968297519 73.25952915688455 H 0.0 **** 0.06
30531 C 31.678017413614384 65.1800133469633 105.4978563859627 C 0.0 **** -0.24
30532 H 31.38904450042338 64.13382755912866 105.60017956088072 H 0.0 **** 0.06
30533 H 32.38102478790438 65.44129333640814 106.28882254275912 H 0.0 **** 0.06
30534 H 30.792697176180127 65.81115888672548 105.57446214399353 H 0.0 **** 0.06
30535 H 32.14991934165863 65.33263009336412 104.52740198454106 H 0.0 **** 0.06
30536 C 7.2870681094476595 3.0570852314329215 54.611598876591444 C 0.0 **** -0.24
30537 H 7.390658821095542 4.105179951094897 54.894368279861396 H 0.0 **** 0.06
30538 H 7.896607931688152 2.8560118631075966 53.730095722943304 H 0.0 **** 0.06
30539 H 6.242187369051237 2.8439660737207078 54.387722820776304 H 0.0 **** 0.06
30540 H 7.618246391353296 2.4250332905774883 55.43532658200718 H 0.0 **** 0.06
30541 C 71.5921652225052 127.55434559767298 2.308501006436881 C 0.0 **** -0.24
30542 H 70.63397110909307 128.07309767737584 2.3152348606311897 H 0.0 **** 0.06
30543 H 71.78485089854871 127.16078485692111 1.3104698272729038 H 0.0 **** 0.06
30544 H 71.56536945054242 126.73270462873381 3.02459470824558 H 0.0 **** 0.06
30545 H 72.38312822292056 128.2505511432852 2.5840810258701836 H 0.0 **** 0.06
30546 C 105.48809798991329 33.61322439983823 70.9260516314124 C 0.0 **** -0.24
30547 H 106.3199646380973 33.132693880235585 71.44242110016978 H 0.0 **** 0.06
30548 H 105.5186208805668 33.3517470304136 69.8685914792228 H 0.0 **** 0.06
30549 H 105.56729156095395 34.6941973825232 71.03698315748409 H 0.0 **** 0.06
30550 H 104.54698316150763 33.27171711182173 71.35872446393279 H 0.0 **** 0.06
30551 C 81.84345664257187 13.601342191941484 120.41602396419171 C 0.0 **** -0.24
30552 H 81.18567857587105 13.93627961672297 121.21832566474984 H 0.0 **** 0.06
30553 H 81.2778134812652 12.985803701446258 119.71634313974084 H 0.0 **** 0.06
30554 H 82.6603832262284 13.016092106989504 120.8372523114898 H 0.0 **** 0.06
30555 H 82.24866030822103 14.467001737254591 119.89271949217357 H 0.0 **** 0.06
30556 C 0.9332330591147127 121.55120386467752 30.755852127697324 C 0.0 **** -0.24
30557 H 1.1353553258467173 122.55791183834833 30.389620339706767 H 0.0 **** 0.06
30558 H 0.5612210960643438 120.93536219904539 29.93760451147267 H 0.0 **** 0.06
30559 H 0.18574689198851502 121.59607775572474 31.547511016699673 H 0.0 **** 0.06
30560 H 1.8531037225464502 121.11692611906207 31.14947115401793 H 0.0 **** 0.06
30561 C 133.6563598072903 91.06386322136251 82.1939607564575 C 0.0 **** -0.24
30562 H 132.7615350462533 90.75237815289296 82.73153372535523 H 0.0 **** 0.06
30563 H 133.51538411462576 92.07396806505193 81.80896317868309 H 0.0 **** 0.06
30564 H 133.83774148965574 90.38096791949161 81.36350377925396 H 0.0 **** 0.06
30565 H 134.51030837851437 91.0478895306421 82.87053203904253 H 0.0 **** 0.06
30566 C 98.30546818846707 52.9460238690756 24.447707662272364 C 0.0 **** -0.24
30567 H 98.71105318059955 51.98473458672878 24.761449181716102 H 0.0 **** 0.06
30568 H 97.53200633649257 52.78629815937788 23.696128958929535 H 0.0 **** 0.06
30569 H 99.10289242021207 53.55654037230754 24.02483507517536 H 0.0 **** 0.06
30570 H 97.87497926882762 53.45718239087431 25.309240802571594 H 0.0 **** 0.06
30571 C 93.81815593308157 77.17703207493918 89.84017776171956 C 0.0 **** -0.24
30572 H 94.35557494908568 76.2412468378364 89.99130624472363 H 0.0 **** 0.06
30573 H 94.50240049071743 78.01525817073747 89.97303285675488 H 0.0 **** 0.06
30574 H 93.00818510900446 77.25142280023249 90.56596516698652 H 0.0 **** 0.06
30575 H 93.40575694406975 77.19983636520453 88.83157670617798 H 0.0 **** 0.06
30576 C 63.170379167960505 120.44661460259084 43.37384612066006 C 0.0 **** -0.24
30577 H 62.376409500349155 121.17705421805555 43.21468189505677 H 0.0 **** 0.06
30578 H 63.52678758511624 120.08165771268436 42.41033764007213 H 0.0 **** 0.06
30579 H 62.78441717426699 119.61211706768312 43.95935723833202 H 0.0 **** 0.06
30580 H 63.993895384557334 120.91777007461656 43.91036137671614 H 0.0 **** 0.06
30581 C 2.883045700904944 23.19628854289101 37.04424208755619 C 0.0 **** -0.24
30582 H 3.514312258328914 22.9196175893681 37.88956323881718 H 0.0 **** 0.06
30583 H 3.00205718087048 22.462159624732692 36.247336155811354 H 0.0 **** 0.06
30584 H 3.177447234408504 24.180403055465547 36.67929765893738 H 0.0 **** 0.06
30585 H 1.8410295292978844 23.223623430782766 37.362347646894285 H 0.0 **** 0.06
30586 C 68.90570435614549 79.2904184578378 52.10265393308919 C 0.0 **** -0.24
30587 H 68.38069428527237 79.24769059514475 53.05728572002329 H 0.0 **** 0.06
30588 H 69.58829975881432 78.44397237118255 52.02517093628393 H 0.0 **** 0.06
30589 H 69.47038895527669 80.21979890421625 52.04043435078853 H 0.0 **** 0.06
30590 H 68.18222242851374 79.24948612233027 51.28779041533244 H 0.0 **** 0.06
30591 C 2.0086500350633507 37.01332528230397 123.94984034797704 C 0.0 **** -0.24
30592 H 2.065478221316514 36.52789530815366 122.97621192807344 H 0.0 **** 0.06
30593 H 2.7243461229466526 36.54874026325663 124.62891102356673 H 0.0 **** 0.06
30594 H 1.0011739030194917 36.902920999463774 124.35268382054329 H 0.0 **** 0.06
30595 H 2.2436652523594063 38.07183061796559 123.84363625095904 H 0.0 **** 0.06
30596 C 106.59405354853698 64.9815218710459 115.59372712316224 C 0.0 **** -0.24
30597 H 106.69351049207023 64.00530761047905 116.0680372371996 H 0.0 **** 0.06
30598 H 107.53624864148014 65.25092239932485 115.11628306214948 H 0.0 **** 0.06
30599 H 106.34177838331402 65.72682969197419 116.34771554004823 H 0.0 **** 0.06
30600 H 105.80465978103297 64.94169346928607 114.84334107155703 H 0.0 **** 0.06
30601 C 100.18757443289576 87.70606661824387 76.46024674836531 C 0.0 **** -0.24
30602 H 100.55335516352062 87.55336754579628 77.47556369720468 H 0.0 **** 0.06
30603 H 100.90670369614355 88.30373833274021 75.90034168973818 H 0.0 **** 0.06
30604 H 99.22978556727213 88.22634871095254 76.49393866219322 H 0.0 **** 0.06
30605 H 100.05873393092918 86.74064367270114 75.97101805161131 H 0.0 **** 0.06
30606 C 130.4256200055998 5.00889574981219 60.024706923776705 C 0.0 **** -0.24
30607 H 131.47922804624002 5.189879526498078 59.81179136627105 H 0.0 **** 0.06
30608 H 129.85449638074982 5.058012480257609 59.09804011371628 H 0.0 **** 0.06
30609 H 130.06049958420684 5.7648586571358 60.719285344217724 H 0.0 **** 0.06
30610 H 130.31020771462772 4.02028888052504 60.470560695041 H 0.0 **** 0.06
30611 C 81.13758980590828 118.4764374953279 95.6242368474231 C 0.0 **** -0.24
30612 H 80.57336990687918 118.58317704852905 94.69841419769455 H 0.0 **** 0.06
30613 H 81.93719149075436 119.21686190282678 95.64978896640713 H 0.0 **** 0.06
30614 H 81.56734361246384 117.47586707824973 95.67431257949355 H 0.0 **** 0.06
30615 H 80.47296126756257 118.62898471936151 96.4744999274148 H 0.0 **** 0.06
30616 C 52.87687546694502 54.41941623738546 112.42214042290442 C 0.0 **** -0.24
30617 H 53.824943998250475 54.24352703879508 111.91371627005637 H 0.0 **** 0.06
30618 H 52.07935895234185 54.503813331201385 111.68488298039918 H 0.0 **** 0.06
30619 H 52.93987301380568 55.342334298037954 112.998885286057 H 0.0 **** 0.06
30620 H 52.66614351670805 53.58655980239584 113.09308100976676 H 0.0 **** 0.06
30621 C 64.67723245465902 33.21585813558859 14.748083084565849 C 0.0 **** -0.24
30622 H 64.61920261550966 34.13990439621729 14.174585031931159 H 0.0 **** 0.06
30623 H 65.4692397436977 32.585164592293296 14.343726569427247 H 0.0 **** 0.06
30624 H 63.72459757299521 32.68891340054131 14.684520971048201 H 0.0 **** 0.06
30625 H 64.89380195574387 33.4478073382263 15.790893365935034 H 0.0 **** 0.06
30626 C 39.727182928991795 86.25638960562353 21.860244768931267 C 0.0 **** -0.24
30627 H 39.92639419829172 86.8602980654386 22.745546133641255 H 0.0 **** 0.06
30628 H 38.6557715109401 86.25178062356292 21.65675164776144 H 0.0 **** 0.06
30629 H 40.06916419826496 85.23559567737456 22.03275464835798 H 0.0 **** 0.06
30630 H 40.257463514919834 86.67855815018999 21.006662740960167 H 0.0 **** 0.06
30631 C 26.61830362750419 88.63751324232538 131.31354280721175 C 0.0 **** -0.24
30632 H 26.552673447529173 87.66844011127569 131.80981499247036 H 0.0 **** 0.06
30633 H 25.79237066989677 89.26916861334502 131.6418602492516 H 0.0 **** 0.06
30634 H 26.56233481174857 88.49786102790182 130.2344780444804 H 0.0 **** 0.06
30635 H 27.56491992475509 89.11338874250322 131.57041276537407 H 0.0 **** 0.06
30636 C 91.20962092029966 129.85907255076017 128.88461075170073 C 0.0 **** -0.24
30637 H 90.43432991366407 130.3890610677944 129.43792448685252 H 0.0 **** 0.06
30638 H 90.8986851543824 128.82618342176497 128.7248919284794 H 0.0 **** 0.06
30639 H 92.1377544499094 129.87497229403675 129.456614638875 H 0.0 **** 0.06
30640 H 91.36730740101822 130.34581955531084 127.92272284822212 H 0.0 **** 0.06
30641 C 4.613380714169125 38.05367782181827 115.00757267841237 C 0.0 **** -0.24
30642 H 5.536587267418781 38.608457544016886 115.17971871213328 H 0.0 **** 0.06
30643 H 4.5654253595802174 37.7456837753445 113.96337347050726 H 0.0 **** 0.06
30644 H 3.759493088668421 38.689036148803865 115.23913412480385 H 0.0 **** 0.06
30645 H 4.59537264950643 37.17237436629816 115.64825041508647 H 0.0 **** 0.06
30646 C 49.72978165187547 3.712288426598331 87.99794709608462 C 0.0 **** -0.24
30647 H 48.73745190466984 3.7461612793432373 87.54838691282681 H 0.0 **** 0.06
30648 H 50.37977425708519 3.0756420005143283 87.39714510356964 H 0.0 **** 0.06
30649 H 49.657259581017556 3.3086113453147092 89.00740803367263 H 0.0 **** 0.06
30650 H 50.14422406337184 4.720068426147389 88.03860500036606 H 0.0 **** 0.06
30651 C 67.38993416458123 11.81269720924439 0.11161221378671371 C 0.0 **** -0.24
30652 H 66.37660861921628 12.153522246378316 0.32331408288260377 H 0.0 **** 0.06
30653 H 67.80752055446737 12.398151920761563 -0.7076487091580077 H 0.0 **** 0.06
30654 H 67.36761371802194 10.759827939588149 -0.168073540767665 H 0.0 **** 0.06
30655 H 68.00773548810707 11.93920537325431 1.0016725228598204 H 0.0 **** 0.06
30656 C 38.07424694979633 34.92107192830083 22.454846730039726 C 0.0 **** -0.24
30657 H 39.15639658701527 34.9968935784563 22.561295323600653 H 0.0 **** 0.06
30658 H 37.62179554578483 34.779959604410436 23.436758707827543 H 0.0 **** 0.06
30659 H 37.83136427175705 34.07081877501946 21.817042943337547 H 0.0 **** 0.06
30660 H 37.688563506799824 35.83538834581822 22.00475030068175 H 0.0 **** 0.06
30661 C 16.34758817325195 38.357806962855335 84.61248296128232 C 0.0 **** -0.24
30662 H 15.68740375020792 39.08930264391802 84.14664108855365 H 0.0 **** 0.06
30663 H 16.93175141348081 38.84385698677197 85.39528360335787 H 0.0 **** 0.06
30664 H 17.018916558852993 37.9432913469104 83.86158750690139 H 0.0 **** 0.06
30665 H 15.751490886887382 37.55625236439063 85.04928307177036 H 0.0 **** 0.06
30666 C 128.9766390893366 126.02365468858589 84.71260843329367 C 0.0 **** -0.24
30667 H 129.8011644543959 126.61853629294981 84.31977913427535 H 0.0 **** 0.06
30668 H 129.18822501108093 124.96484473276853 84.56135379407067 H 0.0 **** 0.06
30669 H 128.05670286918652 126.28909147965668 84.19226557080103 H 0.0 **** 0.06
30670 H 128.86214954586578 126.22188638909688 85.7784815106887 H 0.0 **** 0.06
30671 C 134.1611960165707 64.47522631788911 77.81648030788638 C 0.0 **** -0.24
30672 H 134.0425342114264 65.09559151733458 78.70458358831583 H 0.0 **** 0.06
30673 H 133.32561122950113 63.777846016874435 77.74679601105557 H 0.0 **** 0.06
30674 H 135.09568384586476 63.91724827724261 77.88511063063015 H 0.0 **** 0.06
30675 H 134.18083391590102 65.10959149663108 76.93069240812467 H 0.0 **** 0.06
30676 C 107.7297310003102 111.82923204922957 115.63187268107947 C 0.0 **** -0.24
30677 H 106.64074078334502 111.86803682307468 115.58861053631966 H 0.0 **** 0.06
30678 H 108.03674537135109 111.16195336630764 116.43738209087329 H 0.0 **** 0.06
30679 H 108.12065104332025 112.82849350833018 115.81938813137182 H 0.0 **** 0.06
30680 H 108.1183329335479 111.4576498135668 114.68364209351029 H 0.0 **** 0.06
30681 C 131.82825332946146 92.9597623364715 41.81264678774639 C 0.0 **** -0.24
30682 H 131.37767479401754 93.9488738979822 41.727939147468845 H 0.0 **** 0.06
30683 H 132.14068345518723 92.79031291367568 42.84370664638968 H 0.0 **** 0.06
30684 H 132.69584555987586 92.89864931347591 41.15466955300451 H 0.0 **** 0.06
30685 H 131.09883362154352 92.20262542658588 41.524199790576034 H 0.0 **** 0.06
30686 C 41.55995481109349 129.9015116075175 24.36502018323111 C 0.0 **** -0.24
30687 H 41.431737286630096 130.52231178229204 25.25171656274553 H 0.0 **** 0.06
30688 H 41.289224844824474 130.47503448655456 23.47741557227298 H 0.0 **** 0.06
30689 H 40.91747414235513 129.02407035778467 24.440362849759985 H 0.0 **** 0.06
30690 H 42.59980894205793 129.5853500195314 24.29064789378512 H 0.0 **** 0.06
30691 C 59.869165982177904 105.66064875445466 61.56091207265797 C 0.0 **** -0.24
30692 H 60.94058784422333 105.81674175525018 61.432306998552974 H 0.0 **** 0.06
30693 H 59.32253561761753 106.40817786540367 60.98572205997428 H 0.0 **** 0.06
30694 H 59.61328736442512 105.75547440477311 62.61604916134644 H 0.0 **** 0.06
30695 H 59.603004640700675 104.66403577841203 61.2098212824244 H 0.0 **** 0.06
30696 C 63.953815744795975 22.180053106909497 7.082747623628936 C 0.0 **** -0.24
30697 H 63.650670233861206 21.51410064410244 6.274127668521807 H 0.0 **** 0.06
30698 H 63.58231960673436 21.792778504196036 8.031277562375738 H 0.0 **** 0.06
30699 H 63.5419029098415 23.173399638794834 6.908579650439954 H 0.0 **** 0.06
30700 H 65.0421202253076 22.238796864027535 7.114427675824373 H 0.0 **** 0.06
30701 C 7.505241612995974 56.23113045137758 80.85833804829059 C 0.0 **** -0.24
30702 H 8.197198752714854 56.56095196303734 81.63400047600396 H 0.0 **** 0.06
30703 H 7.779634615016249 55.22909618205665 80.53060522450608 H 0.0 **** 0.06
30704 H 7.555081183766845 56.917818503721094 80.0131590084577 H 0.0 **** 0.06
30705 H 6.491284303216418 56.2193358012739 81.25820117952446 H 0.0 **** 0.06
30706 C 19.651585576892273 104.28184678922872 100.50050058691957 C 0.0 **** -0.24
30707 H 19.507209977832225 104.88862689152049 101.39401870268505 H 0.0 **** 0.06
30708 H 18.70754860192941 103.809260034282 100.22730640561586 H 0.0 **** 0.06
30709 H 20.398327915966107 103.51286000707631 100.70048636006224 H 0.0 **** 0.06
30710 H 19.992015850516623 104.9152654580783 99.68179487200628 H 0.0 **** 0.06
30711 C 71.60609155984002 16.971649039483935 50.58566298998167 C 0.0 **** -0.24
30712 H 72.2857604176462 16.800796598900092 49.7506679235745 H 0.0 **** 0.06
30713 H 70.65313678957898 17.34429769415962 50.2064831232303 H 0.0 **** 0.06
30714 H 72.03973216909134 17.70674024268459 51.2631810900032 H 0.0 **** 0.06
30715 H 71.44376363145011 16.035953772925907 51.11937265794597 H 0.0 **** 0.06
30716 C 46.5177372412531 117.95697210242687 130.53619598775143 C 0.0 **** -0.24
30717 H 47.302485767732946 118.69569568016931 130.3769407453592 H 0.0 **** 0.06
30718 H 46.41443315615706 117.33938651013 129.6436510910299 H 0.0 **** 0.06
30719 H 45.575332092397474 118.46580432970634 130.73853569226523 H 0.0 **** 0.06
30720 H 46.77995141064365 117.32658611531667 131.3867771827711 H 0.0 **** 0.06
30721 C 116.312431234933 68.90618531272492 49.11816493874545 C 0.0 **** -0.24
30722 H 116.84830549336101 69.19517987361081 50.02312518962634 H 0.0 **** 0.06
30723 H 116.9913025406272 68.9464510175855 48.26650040849981 H 0.0 **** 0.06
30724 H 115.48179765369929 69.5930400349099 48.95424566338801 H 0.0 **** 0.06
30725 H 115.92925837883888 67.89183226482322 49.231436911487606 H 0.0 **** 0.06
30726 C 41.09267721579678 11.223997406928149 61.13983325104475 C 0.0 **** -0.24
30727 H 40.30347826345195 10.519838682057127 61.401509618851705 H 0.0 **** 0.06
30728 H 41.74799622775586 10.774934834090402 60.392017790359716 H 0.0 **** 0.06
30729 H 41.671620226925654 11.468759968747833 62.03006092768247 H 0.0 **** 0.06
30730 H 40.64882840031993 12.133153417625635 60.73472509334019 H 0.0 **** 0.06
30731 C 112.78713612101367 28.40752465362823 34.40493749315853 C 0.0 **** -0.24
30732 H 113.45477701479533 27.62187931904998 34.04838988055275 H 0.0 **** 0.06
30733 H 111.96915172532454 27.960060656243854 34.96975832541199 H 0.0 **** 0.06
30734 H 112.38495443123378 28.956226328223465 33.55284509275649 H 0.0 **** 0.06
30735 H 113.34230813412859 29.090384149104466 35.04798337283531 H 0.0 **** 0.06
30736 C 8.26632646867003 99.48616477985766 56.274559420130856 C 0.0 **** -0.24
30737 H 8.084744013881988 98.4344743543555 56.493965617349374 H 0.0 **** 0.06
30738 H 8.673630551906797 99.97789938042548 57.15876617987618 H 0.0 **** 0.06
30739 H 7.329380112627206 99.96495699721119 55.99100241858656 H 0.0 **** 0.06
30740 H 8.97892459336532 99.5669521836941 55.45277937571183 H 0.0 **** 0.06
30741 C 120.03144105507324 28.46351732189717 123.99114578154018 C 0.0 **** -0.24
30742 H 120.16859846114716 27.6342126733295 123.29647121359852 H 0.0 **** 0.06
30743 H 119.21355935761159 28.232681093545494 124.67449216247569 H 0.0 **** 0.06
30744 H 119.7937882933038 29.369093093495053 123.43261129977583 H 0.0 **** 0.06
30745 H 120.94898423241631 28.616895635199853 124.559306566777 H 0.0 **** 0.06
30746 C 68.82166485140617 52.23895138801829 1.7282361774653339 C 0.0 **** -0.24
30747 H 68.71119258589836 53.093084894892385 1.058716961183137 H 0.0 **** 0.06
30748 H 68.40131534927139 52.48624459019118 2.7030471489557613 H 0.0 **** 0.06
30749 H 69.8791585937406 51.9988276300065 1.838329893222209 H 0.0 **** 0.06
30750 H 68.29476927508738 51.38102779536413 1.3112599242719511 H 0.0 **** 0.06
30751 C 125.1698414197177 133.62166342241153 74.02546648204901 C 0.0 **** -0.24
30752 H 126.0316511622247 133.02762167425766 73.72163524215576 H 0.0 **** 0.06
30753 H 125.20712997756797 134.59423303639343 73.53334146277066 H 0.0 **** 0.06
30754 H 125.18718982864819 133.76059665459417 75.10637982073122 H 0.0 **** 0.06
30755 H 124.25353447925248 133.10507200214917 73.74098287021116 H 0.0 **** 0.06
30756 C 8.84824453803185 120.60315652919826 74.05613186374661 C 0.0 **** -0.24
30757 H 8.90080941364829 120.8933584380602 73.00627858953779 H 0.0 **** 0.06
30758 H 9.843126623723947 120.33543141664772 74.40950684856372 H 0.0 **** 0.06
30759 H 8.181874813695515 119.74679970491971 74.16184592888435 H 0.0 **** 0.06
30760 H 8.464999129021862 121.43671675818062 74.64386336521827 H 0.0 **** 0.06
30761 C 71.97102279783229 97.27221801391343 32.52264191305218 C 0.0 **** -0.24
30762 H 72.07234206648252 97.31198753993387 31.43902954789104 H 0.0 **** 0.06
30763 H 71.38221018982227 96.39716634617686 32.80061390191173 H 0.0 **** 0.06
30764 H 71.46864442638378 98.17392009737117 32.873525666037835 H 0.0 **** 0.06
30765 H 72.95833000532235 97.20559102905186 32.978941544143424 H 0.0 **** 0.06
30766 C 64.79264844780207 65.03845470261649 127.37929493805683 C 0.0 **** -0.24
30767 H 64.05967194089253 65.50121188806509 128.03989033220813 H 0.0 **** 0.06
30768 H 65.63106018992691 65.71966126379954 127.23335165604692 H 0.0 **** 0.06
30769 H 64.32788728352975 64.82144708124895 126.41704556456597 H 0.0 **** 0.06
30770 H 65.15043642918467 64.11098698832416 127.82750304525956 H 0.0 **** 0.06
30771 C 28.678003427304986 86.74684626072718 85.03984113849674 C 0.0 **** -0.24
30772 H 28.10333624138974 86.11188626387153 84.36460818034448 H 0.0 **** 0.06
30773 H 29.49699640165545 87.21115065764099 84.49115820329052 H 0.0 **** 0.06
30774 H 29.081390293460288 86.14185123080895 85.8521071854334 H 0.0 **** 0.06
30775 H 28.029643434628838 87.52079512897191 85.45019283525824 H 0.0 **** 0.06
30776 C 86.2452550437909 31.471453935984073 125.60750699694569 C 0.0 **** -0.24
30777 H 85.52325721608588 32.27948771038882 125.495081201392 H 0.0 **** 0.06
30778 H 85.87868253718159 30.583039631721135 125.09024224111371 H 0.0 **** 0.06
30779 H 86.37782758014905 31.246553448033183 126.66571697070233 H 0.0 **** 0.06
30780 H 87.20007055789864 31.774021390530947 125.17849849744204 H 0.0 **** 0.06
30781 C 47.32812287263886 55.57441895024613 18.772506322041863 C 0.0 **** -0.24
30782 H 47.82392968667847 56.023592174854585 17.911365725175756 H 0.0 **** 0.06
30783 H 46.37200015877886 56.07006286906339 18.940004124235486 H 0.0 **** 0.06
30784 H 47.95735980535886 55.690112961407635 19.654239149322734 H 0.0 **** 0.06
30785 H 47.15993058015158 54.51455508088797 18.582403780806033 H 0.0 **** 0.06
30786 C 103.117197160884 110.52009348436789 5.1813892525483425 C 0.0 **** -0.24
30787 H 104.16337381121684 110.54541065027058 4.8780305947554154 H 0.0 **** 0.06
30788 H 102.71369716248005 109.52217126753402 5.009482104897074 H 0.0 **** 0.06
30789 H 102.55171762484864 111.24592835317318 4.598089466000573 H 0.0 **** 0.06
30790 H 103.04050633311542 110.7659989886827 6.240952891288174 H 0.0 **** 0.06
30791 C 66.80479115034221 43.947174153329875 128.8573728106527 C 0.0 **** -0.24
30792 H 66.99496900461591 43.94574365183865 127.78402132756821 H 0.0 **** 0.06
30793 H 67.22938296349675 44.84975186097952 129.29854896969508 H 0.0 **** 0.06
30794 H 67.26584880472676 43.07011831194821 129.3090616932767 H 0.0 **** 0.06
30795 H 65.73004490271703 43.92620546890561 129.03610403274897 H 0.0 **** 0.06
30796 C 99.81589489601414 119.9211464536047 31.322693980552273 C 0.0 **** -0.24
30797 H 100.6384648908218 119.46877265889776 30.768202642329868 H 0.0 **** 0.06
30798 H 99.40055592338649 119.1893489904727 32.01560456298229 H 0.0 **** 0.06
30799 H 99.04209244734898 120.24359789580797 30.62620357305545 H 0.0 **** 0.06
30800 H 100.18517450291219 120.78208091923477 31.88054298400833 H 0.0 **** 0.06
30801 C 107.18462303351673 135.5895466161744 8.387515626659223 C 0.0 **** -0.24
30802 H 107.28869560390116 136.65066481143998 8.614366117311846 H 0.0 **** 0.06
30803 H 107.14280894031192 135.02163578510613 9.31721985675074 H 0.0 **** 0.06
30804 H 108.03936761115398 135.25884098279107 7.796672502965549 H 0.0 **** 0.06
30805 H 106.26765088249758 135.42832737960185 7.821208759780092 H 0.0 **** 0.06
30806 C 35.6072003732163 117.60775394567395 104.5752130929518 C 0.0 **** -0.24
30807 H 34.77528210845111 117.08265481448186 104.10718007275358 H 0.0 **** 0.06
30808 H 36.466057354941654 117.59785445877765 103.90302054966787 H 0.0 **** 0.06
30809 H 35.871431274114684 117.11028226125279 105.50817879349088 H 0.0 **** 0.06
30810 H 35.31805968701343 118.63795001473997 104.78054632643219 H 0.0 **** 0.06
30811 C 74.73737931925842 99.9870101906044 20.181737466427535 C 0.0 **** -0.24
30812 H 74.33381223792617 99.57325779779353 19.25728267756557 H 0.0 **** 0.06
30813 H 73.91540314059023 100.27677967529866 20.836962548132107 H 0.0 **** 0.06
30814 H 75.34549265982855 100.86124160540476 19.952827909730956 H 0.0 **** 0.06
30815 H 75.35093168879382 99.2360409742351 20.678020372302626 H 0.0 **** 0.06
30816 C 48.11524514896172 62.843730931718994 108.10187634516258 C 0.0 **** -0.24
30817 H 47.888244964425226 61.86631366849451 108.52974029180204 H 0.0 **** 0.06
30818 H 48.29523688460023 63.55838315152488 108.90482605100927 H 0.0 **** 0.06
30819 H 47.27154761306113 63.17943089684351 107.49810063532182 H 0.0 **** 0.06
30820 H 49.00312833018752 62.76855339214114 107.47478319766215 H 0.0 **** 0.06
30821 C 40.66568634041613 118.53466469792846 132.6131814197047 C 0.0 **** -0.24
30822 H 41.13349070647865 117.63421798171836 132.21469821607116 H 0.0 **** 0.06
30823 H 41.229179016762714 119.41064484932679 132.2897932595396 H 0.0 **** 0.06
30824 H 40.658813048862896 118.48907615296997 133.70219358810294 H 0.0 **** 0.06
30825 H 39.642195746718585 118.60493664442677 132.24632740056055 H 0.0 **** 0.06
30826 C 4.832108873211212 88.09005184337212 22.727890512373392 C 0.0 **** -0.24
30827 H 5.2372191393279195 88.10351177777355 21.716125441871213 H 0.0 **** 0.06
30828 H 4.493468408000581 87.08176846733124 22.9696019240385 H 0.0 **** 0.06
30829 H 3.991225444888755 88.78099873431512 22.791738279319645 H 0.0 **** 0.06
30830 H 5.606567529885865 88.39300999679642 23.43302187575881 H 0.0 **** 0.06
30831 C 78.72913001598688 27.22032623135444 80.11378010068097 C 0.0 **** -0.24
30832 H 79.00664146832949 26.988318472885005 79.08503673891869 H 0.0 **** 0.06
30833 H 78.26398081254621 26.347125164433983 80.57097827055026 H 0.0 **** 0.06
30834 H 78.02511316765359 28.05257010022475 80.12022149092262 H 0.0 **** 0.06
30835 H 79.62078264513546 27.49522853204551 80.67738491208647 H 0.0 **** 0.06
30836 C 56.60538999579025 99.02655556693148 5.4098446361691686 C 0.0 **** -0.24
30837 H 57.051060763215304 98.68045384052363 4.476706772467423 H 0.0 **** 0.06
30838 H 55.78591799053038 98.362533052081 5.687973875257285 H 0.0 **** 0.06
30839 H 56.22478554070889 100.0388612584739 5.276703873910435 H 0.0 **** 0.06
30840 H 57.36009068702852 99.02161415717978 6.19548479037411 H 0.0 **** 0.06
30841 C 10.521553680335373 110.83350684922914 101.50458062230035 C 0.0 **** -0.24
30842 H 10.464977717623285 110.06102922474662 100.73735017230068 H 0.0 **** 0.06
30843 H 9.793877174200091 111.6154215047506 101.2863251390152 H 0.0 **** 0.06
30844 H 11.523557503778378 111.26222212011183 101.51399373272437 H 0.0 **** 0.06
30845 H 10.304349223806781 110.39530206433562 102.47826630751891 H 0.0 **** 0.06
30846 C 128.22173805643206 57.157939605393835 3.59748818439391 C 0.0 **** -0.24
30847 H 128.11514982895778 56.12257169998179 3.2730758931635933 H 0.0 **** 0.06
30848 H 128.19427028896177 57.20125972968606 4.686971557406764 H 0.0 **** 0.06
30849 H 127.40455414718616 57.75162482992323 3.1893836460957914 H 0.0 **** 0.06
30850 H 129.1722893279403 57.55408985515243 3.241316475225659 H 0.0 **** 0.06
30851 C 6.643418713307462 65.88013975879335 61.020917825677984 C 0.0 **** -0.24
30852 H 7.6535500079524965 65.88049307130439 60.61137575943404 H 0.0 **** 0.06
30853 H 6.659033288240547 65.45864557761115 62.025791888547104 H 0.0 **** 0.06
30854 H 5.993828819876736 65.27929610978782 60.384961136845206 H 0.0 **** 0.06
30855 H 6.267284277432481 66.90316541123093 61.06058561291674 H 0.0 **** 0.06
30856 C 77.70863312126899 124.17741864054003 88.6583634113484 C 0.0 **** -0.24
30857 H 77.06324378573586 124.39011238550444 87.80582950561896 H 0.0 **** 0.06
30858 H 77.47902022288206 124.86755374642411 89.46974524467547 H 0.0 **** 0.06
30859 H 78.75139209513463 124.29682832666772 88.36284496900345 H 0.0 **** 0.06
30860 H 77.54199341883032 123.15323128398887 88.993315001942 H 0.0 **** 0.06
30861 C 100.03843077134863 70.74007784764086 58.184169948458475 C 0.0 **** -0.24
30862 H 100.53735490750628 71.6496769169695 57.848453784217725 H 0.0 **** 0.06
30863 H 100.32777985290109 70.52574658488129 59.21354273551191 H 0.0 **** 0.06
30864 H 100.32987041676077 69.90876464724906 57.543056613096326 H 0.0 **** 0.06
30865 H 98.95802021690977 70.87846065454892 58.131403043088284 H 0.0 **** 0.06
30866 C 74.09627310086074 72.90067188880609 77.03462922936225 C 0.0 **** -0.24
30867 H 75.02894645507888 73.45867002383025 76.94650659086092 H 0.0 **** 0.06
30868 H 74.11489961574097 72.3042426182108 77.94720266493592 H 0.0 **** 0.06
30869 H 73.984461603937 72.24313215712172 76.17211268786164 H 0.0 **** 0.06
30870 H 73.25865482288384 73.59694603580922 77.0715071182355 H 0.0 **** 0.06
30871 C 61.838431840790975 17.15993068531865 135.45549859706819 C 0.0 **** -0.24
30872 H 62.86899444019895 17.392351684529807 135.18609686111614 H 0.0 **** 0.06
30873 H 61.81232407796972 16.73975469562979 136.46134929386042 H 0.0 **** 0.06
30874 H 61.43241647396752 16.436159197531758 134.74921296729104 H 0.0 **** 0.06
30875 H 61.241343798594585 18.070774905998803 135.42664230598388 H 0.0 **** 0.06
30876 C 126.03258466532397 4.070348241949755 3.6266854180449855 C 0.0 **** -0.24
30877 H 126.25766213073165 3.0450384983752095 3.9206856525698868 H 0.0 **** 0.06
30878 H 126.38422229960665 4.753930098630249 4.398794111216148 H 0.0 **** 0.06
30879 H 124.95554379258519 4.183287104437355 3.502456442377479 H 0.0 **** 0.06
30880 H 126.53302194235835 4.295822630755808 2.6847698638979978 H 0.0 **** 0.06
30881 C 56.35367308396553 109.06072110949071 37.03850193055271 C 0.0 **** -0.24
30882 H 56.39629955760836 109.80706200255901 37.831538058672464 H 0.0 **** 0.06
30883 H 56.05217284709971 109.53932267484845 36.10602443789239 H 0.0 **** 0.06
30884 H 55.62901259532947 108.29110165301347 37.30286927875787 H 0.0 **** 0.06
30885 H 57.336467155620284 108.60658387864964 36.91336106822793 H 0.0 **** 0.06
30886 C 130.89931363087848 52.04287966997879 89.89456207156888 C 0.0 **** -0.24
30887 H 129.94576655521848 51.52064329326794 89.96105360843697 H 0.0 **** 0.06
30888 H 131.1624031219833 52.44665394917985 90.87206158403689 H 0.0 **** 0.06
30889 H 130.81817360874686 52.85787757150294 89.17510756022776 H 0.0 **** 0.06
30890 H 131.67295106812165 51.34669807350616 89.5687163710945 H 0.0 **** 0.06
30891 C 83.59894083856473 0.6384018408300562 114.62576399999307 C 0.0 **** -0.24
30892 H 84.26800377871967 0.7560270478593907 115.47806508831786 H 0.0 **** 0.06
30893 H 82.56822212912465 0.7805745213729836 114.95058846472446 H 0.0 **** 0.06
30894 H 83.71473096951442 -0.36196529450623416 114.2084879411126 H 0.0 **** 0.06
30895 H 83.84593463778539 1.3800834490893408 113.86521447282863 H 0.0 **** 0.06
30896 C 85.72695080882052 50.970363592628075 129.9604246267196 C 0.0 **** -0.24
30897 H 86.20305925842307 50.72166916020561 129.01185154287856 H 0.0 **** 0.06
30898 H 84.6551640989882 50.78158996803927 129.88896210176088 H 0.0 **** 0.06
30899 H 85.89633083472873 52.023148822761215 130.1866694806712 H 0.0 **** 0.06
30900 H 86.15282078351125 50.35518310345856 130.75287448489803 H 0.0 **** 0.06
30901 C 36.811590706704465 71.98486597874938 47.76346120136891 C 0.0 **** -0.24
30902 H 36.78833335644898 72.73979914842582 46.978772104493956 H 0.0 **** 0.06
30903 H 36.27912187465859 72.3546920209356 48.639847939432215 H 0.0 **** 0.06
30904 H 37.84733734248175 71.77133622897838 48.03088800782855 H 0.0 **** 0.06
30905 H 36.33378629475836 71.07330981666664 47.40532806857151 H 0.0 **** 0.06
30906 C 27.336800911126076 79.31215195154772 113.87141531557066 C 0.0 **** -0.24
30907 H 28.037343221510874 78.64815156334907 114.37861651338616 H 0.0 **** 0.06
30908 H 26.425065838778252 78.76408945181163 113.6340301630392 H 0.0 **** 0.06
30909 H 27.789819172423115 79.682155603067 112.95079602009434 H 0.0 **** 0.06
30910 H 27.09812649939959 80.15337592528232 114.52160742506263 H 0.0 **** 0.06
30911 C 69.24365587503591 9.116657001508543 36.01658400191563 C 0.0 **** -0.24
30912 H 68.71033676679383 8.311112446847233 35.510510071373545 H 0.0 **** 0.06
30913 H 69.3532621042712 8.871626737839279 37.07277559565492 H 0.0 **** 0.06
30914 H 68.68178452313437 10.044686100790841 35.91420429214108 H 0.0 **** 0.06
30915 H 70.2303097244355 9.23728432137338 35.56680250305068 H 0.0 **** 0.06
30916 C 21.297788200778797 44.00269962232278 120.92464222275349 C 0.0 **** -0.24
30917 H 22.289041375209507 44.34350393580735 120.62412655029007 H 0.0 **** 0.06
30918 H 21.288033841332293 43.82115142909208 121.99931108413718 H 0.0 **** 0.06
30919 H 21.05606781017059 43.080532239391005 120.39714759271843 H 0.0 **** 0.06
30920 H 20.560942807964835 44.76689406563685 120.67711689796977 H 0.0 **** 0.06
30921 C 35.91891332076477 2.2581744493560194 94.81903448193952 C 0.0 **** -0.24
30922 H 35.50463260586548 2.8906286362107103 94.03369043881935 H 0.0 **** 0.06
30923 H 35.36973327949249 1.3167624933200628 94.85437453812523 H 0.0 **** 0.06
30924 H 35.830446421737236 2.7661787071163673 95.77909766797501 H 0.0 **** 0.06
30925 H 36.96929753089802 2.0587437908968553 94.60828947683706 H 0.0 **** 0.06
30926 C 102.7361455205124 91.14419635192718 119.57379988648245 C 0.0 **** -0.24
30927 H 102.60378799974288 91.46739846610788 120.60643629482507 H 0.0 **** 0.06
30928 H 103.16930269314437 91.95828406095887 118.99143557354658 H 0.0 **** 0.06
30929 H 101.76882728331415 90.87024307816424 119.15249583883758 H 0.0 **** 0.06
30930 H 103.40214983993327 90.2818889064389 119.54565437643934 H 0.0 **** 0.06
30931 C 77.62251346143441 93.7549690882455 75.41498224058043 C 0.0 **** -0.24
30932 H 78.55513456937055 94.31744757384678 75.37855620893728 H 0.0 **** 0.06
30933 H 77.07373397950857 94.02000241477188 76.31957029658159 H 0.0 **** 0.06
30934 H 77.84261779444745 92.68751001636821 75.42342433219403 H 0.0 **** 0.06
30935 H 77.01862661149954 93.9946837956663 74.54036372550433 H 0.0 **** 0.06
30936 C 75.17508244822965 17.156542600644343 75.86981303823161 C 0.0 **** -0.24
30937 H 74.10672246622084 17.328404402765983 75.9991556495908 H 0.0 **** 0.06
30938 H 75.3862325725525 16.091373651208755 75.96866562986567 H 0.0 **** 0.06
30939 H 75.72609553723078 17.708311601996627 76.63208310448648 H 0.0 **** 0.06
30940 H 75.48037815458238 17.49832820480526 74.88161208547902 H 0.0 **** 0.06
30941 C 113.90870092406246 130.98990301553036 5.1120152164551484 C 0.0 **** -0.24
30942 H 113.74712769751162 130.07197883058632 4.547389396320568 H 0.0 **** 0.06
30943 H 113.66989152771708 130.8182656471301 6.1618922459061025 H 0.0 **** 0.06
30944 H 113.2657231788204 131.77712490354918 4.7168691238154565 H 0.0 **** 0.06
30945 H 114.95198819575978 131.293478764926 5.0212268386461005 H 0.0 **** 0.06
30946 C 20.252137539642092 118.78518290109643 110.74515151317621 C 0.0 **** -0.24
30947 H 20.976480030402 118.50695268330358 111.51156003807284 H 0.0 **** 0.06
30948 H 20.49085508313027 119.77808745393239 110.36317824813557 H 0.0 **** 0.06
30949 H 19.25117072584999 118.79205799158981 111.17632922955465 H 0.0 **** 0.06
30950 H 20.292165935441005 118.06301634719239 109.92919483827 H 0.0 **** 0.06
30951 C 74.27134179987172 111.9275672809938 132.32602146469492 C 0.0 **** -0.24
30952 H 73.31620601275364 112.44627065263401 132.39826709183674 H 0.0 **** 0.06
30953 H 74.74953420460008 111.9076908490324 133.30501890360708 H 0.0 **** 0.06
30954 H 74.91554073821078 112.44936650823726 131.6178277138727 H 0.0 **** 0.06
30955 H 74.10443509207244 110.907128633002 131.98161449180677 H 0.0 **** 0.06
30956 C 44.65945588229076 53.25018071054467 136.454266234537 C 0.0 **** -0.24
30957 H 44.17423597214781 52.53481008935222 135.79012047993513 H 0.0 **** 0.06
30958 H 44.3368531369004 54.25977504822299 136.19768319893637 H 0.0 **** 0.06
30959 H 45.74085828076028 53.173482374486554 136.3411013968181 H 0.0 **** 0.06
30960 H 44.385134675751615 53.03112044757222 137.4864007020396 H 0.0 **** 0.06
30961 C 135.55719388649277 91.43920906117819 102.845274191773 C 0.0 **** -0.24
30962 H 135.02554378824135 92.37037833955748 102.65030498104517 H 0.0 **** 0.06
30963 H 136.42307375261996 91.3698160701079 102.1869940671229 H 0.0 **** 0.06
30964 H 134.8911853491449 90.59556293601995 102.65999608589124 H 0.0 **** 0.06
30965 H 135.88696004521051 91.42012803235357 103.88401489872109 H 0.0 **** 0.06
30966 C 56.31815621729014 9.186743007980851 73.70522074931739 C 0.0 **** -0.24
30967 H 56.09670468490198 8.713194651288063 72.74811663181174 H 0.0 **** 0.06
30968 H 55.54325895018381 8.926738148045331 74.42656170471264 H 0.0 **** 0.06
30969 H 56.34651429879702 10.268498751077345 73.5766075022463 H 0.0 **** 0.06
30970 H 57.285240267791465 8.838003447981322 74.06789723660614 H 0.0 **** 0.06
30971 C 17.267324208671525 58.861250244108476 115.89870804750021 C 0.0 **** -0.24
30972 H 18.112120489346694 59.1513934045567 116.52463481964276 H 0.0 **** 0.06
30973 H 16.48574461188032 58.42696141972772 116.52185778730771 H 0.0 **** 0.06
30974 H 17.59753732455374 58.12666249203755 115.16315637133192 H 0.0 **** 0.06
30975 H 16.877477304624108 59.73957939350555 115.38517780037643 H 0.0 **** 0.06
30976 C 125.22699233626105 119.64098286609041 3.1453543510224726 C 0.0 **** -0.24
30977 H 125.90251480467992 120.06048082603627 2.400261813886509 H 0.0 **** 0.06
30978 H 125.80648131714648 119.23309150940707 3.973355684701275 H 0.0 **** 0.06
30979 H 124.63387256561613 118.8476235131618 2.6905731579596974 H 0.0 **** 0.06
30980 H 124.56418671330552 120.42401253576978 3.515346731802733 H 0.0 **** 0.06
30981 C 0.10115252782608763 20.604883284086668 81.70530790745893 C 0.0 **** -0.24
30982 H -0.3600667038093981 19.61819418007815 81.74079689296259 H 0.0 **** 0.06
30983 H 0.047657278288522065 20.993888959459753 80.68855036550484 H 0.0 **** 0.06
30984 H 1.1441916533511858 20.530452885207694 82.01175941562097 H 0.0 **** 0.06
30985 H -0.4288600045377464 21.277326198344497 82.38114619096075 H 0.0 **** 0.06
30986 C 64.94553527564659 20.709634387148355 30.6166364219809 C 0.0 **** -0.24
30987 H 65.25827487341132 19.871771554732902 29.99344713795466 H 0.0 **** 0.06
30988 H 65.59992180509232 20.778423954526318 31.486118087530087 H 0.0 **** 0.06
30989 H 63.91837413881683 20.553780019149244 30.94471480449178 H 0.0 **** 0.06
30990 H 65.00708216538848 21.633470855252995 30.040676993204244 H 0.0 **** 0.06
30991 C 47.866030255057694 124.90118258464909 114.483174043345 C 0.0 **** -0.24
30992 H 47.11131352293228 124.15029771164933 114.24856023175096 H 0.0 **** 0.06
30993 H 47.62114833070871 125.83400035154712 113.97465369286692 H 0.0 **** 0.06
30994 H 48.842921961077934 124.55035828253253 114.15019060004758 H 0.0 **** 0.06
30995 H 47.88791593967659 125.06928550634466 115.56013063865751 H 0.0 **** 0.06
30996 C 65.91525844414603 53.77392148291139 80.86654387263795 C 0.0 **** -0.24
30997 H 65.84071312717737 52.7417450918485 80.52593280059301 H 0.0 **** 0.06
30998 H 66.72593824193648 54.273909104210674 80.33688861842683 H 0.0 **** 0.06
30999 H 66.11655023230891 53.78922246169566 81.93763843101465 H 0.0 **** 0.06
31000 H 64.97657831716752 54.29068680697577 80.66635824045429 H 0.0 **** 0.06
31001 C 11.41593852433013 115.76849049861275 108.09094851289407 C 0.0 **** -0.24
31002 H 10.787793123271655 114.88156198870189 108.01139847152467 H 0.0 **** 0.06
31003 H 10.902314537867191 116.61938674495258 107.64031099739594 H 0.0 **** 0.06
31004 H 12.357222395609124 115.59475317868637 107.56938731330857 H 0.0 **** 0.06
31005 H 11.615968158135097 115.98000294414084 109.14137256754015 H 0.0 **** 0.06
31006 C 74.77578192875472 72.92202272815965 92.72150594817295 C 0.0 **** -0.24
31007 H 75.79207065421522 73.20346425403719 92.44671524451235 H 0.0 **** 0.06
31008 H 74.8071749280885 72.19269628953458 93.53172971102038 H 0.0 **** 0.06
31009 H 74.2739008744154 72.48512302965173 91.85865133431315 H 0.0 **** 0.06
31010 H 74.23059714897119 73.807089048742 93.0496632778677 H 0.0 **** 0.06
31011 C 75.3341484652284 24.955178340564586 75.33894347918354 C 0.0 **** -0.24
31012 H 76.2250791460816 24.550277658280976 75.81762914100702 H 0.0 **** 0.06
31013 H 74.81413943837772 24.157329402347216 74.80655466207875 H 0.0 **** 0.06
31014 H 75.62195826135557 25.734668781743366 74.63417671604518 H 0.0 **** 0.06
31015 H 74.67386823538503 25.375873685785635 76.09758207842688 H 0.0 **** 0.06
31016 C 98.79919679560801 10.261861977727605 106.75037409055255 C 0.0 **** -0.24
31017 H 99.27400729737583 10.131980515084429 105.7778994887505 H 0.0 **** 0.06
31018 H 97.79797420720341 10.673646154162782 106.61391420748515 H 0.0 **** 0.06
31019 H 99.3938440426614 10.945193540098103 107.35697915853777 H 0.0 **** 0.06
31020 H 98.72980439445381 9.297046118616567 107.25200650403713 H 0.0 **** 0.06
31021 C 35.10673337377786 99.89374729685132 63.9402790673316 C 0.0 **** -0.24
31022 H 34.81876643272076 100.9446858311792 63.90113397718568 H 0.0 **** 0.06
31023 H 34.36230397102385 99.33406635953911 64.50771032706973 H 0.0 **** 0.06
31024 H 36.07854308327852 99.80229298565742 64.42619891269129 H 0.0 **** 0.06
31025 H 35.16670724205251 99.49592096611879 62.92824482204483 H 0.0 **** 0.06
31026 C 6.129055591003684 12.25661166144971 99.37534395525614 C 0.0 **** -0.24
31027 H 5.908827927686339 11.240953931724977 99.70554125995221 H 0.0 **** 0.06
31028 H 6.885670142269312 12.226903155820064 98.5914837173016 H 0.0 **** 0.06
31029 H 6.500163122718551 12.83964039766628 100.21834737373428 H 0.0 **** 0.06
31030 H 5.220273829630528 12.716017907887004 98.98794026062376 H 0.0 **** 0.06
31031 C 0.09965619935131897 39.868135017026134 89.74800958369809 C 0.0 **** -0.24
31032 H -0.5686506629510859 39.079189086136054 90.09331137500305 H 0.0 **** 0.06
31033 H -0.24952711872497702 40.82986623801108 90.125459166327 H 0.0 **** 0.06
31034 H 0.10747433941210005 39.88603427296856 88.65811116527709 H 0.0 **** 0.06
31035 H 1.1079231897490551 39.67774190286269 90.11612670097838 H 0.0 **** 0.06
31036 C 133.49792017836677 46.41250418198325 111.61012930152015 C 0.0 **** -0.24
31037 H 134.42588807647095 46.33478511516904 111.04380750385056 H 0.0 **** 0.06
31038 H 133.19932907306895 47.459453729894136 111.67679362514778 H 0.0 **** 0.06
31039 H 133.650107439684 46.01385768550141 112.6129772737616 H 0.0 **** 0.06
31040 H 132.7165318362833 45.842814209142546 111.10652659636662 H 0.0 **** 0.06
31041 C 121.87613375517437 20.73376104448711 127.35911364941384 C 0.0 **** -0.24
31042 H 122.14597002882863 19.678373769186166 127.41401555250303 H 0.0 **** 0.06
31043 H 120.80020144488559 20.825637175332368 127.21471334662257 H 0.0 **** 0.06
31044 H 122.39700551817621 21.19825850486032 126.5228818057246 H 0.0 **** 0.06
31045 H 122.16276533306817 21.229648242087812 128.28753563157002 H 0.0 **** 0.06
31046 C 10.388280018999211 107.50046031518832 93.02113300874898 C 0.0 **** -0.24
31047 H 11.224420683078193 106.97007682127563 93.4772428840316 H 0.0 **** 0.06
31048 H 10.76895040826463 108.30808239851139 92.39577735540605 H 0.0 **** 0.06
31049 H 9.75071188744721 107.91423675126978 93.80239096795835 H 0.0 **** 0.06
31050 H 9.810893473597702 106.80789638945343 92.40872706014065 H 0.0 **** 0.06
31051 C 66.45240620352351 89.34992008557697 130.07556646715096 C 0.0 **** -0.24
31052 H 66.57991975957682 88.56948862065275 130.8248694916418 H 0.0 **** 0.06
31053 H 65.99089906094169 90.22388966803129 130.53629787880072 H 0.0 **** 0.06
31054 H 65.81299996503925 88.98217086352852 129.2726316844258 H 0.0 **** 0.06
31055 H 67.42596623178963 89.6245543349111 129.66757500112692 H 0.0 **** 0.06
31056 C 40.320753864360654 82.19211359153434 125.55290136553856 C 0.0 **** -0.24
31057 H 39.24063251654886 82.05710807799704 125.50505364540074 H 0.0 **** 0.06
31058 H 40.756026380357866 81.41703340891753 126.18393038499121 H 0.0 **** 0.06
31059 H 40.54640145481869 83.17265422458655 125.97167132284115 H 0.0 **** 0.06
31060 H 40.740204849246965 82.12123709941149 124.54855006778809 H 0.0 **** 0.06
31061 C 118.81275351706604 93.4024249838319 84.40658221138236 C 0.0 **** -0.24
31062 H 119.34528718421237 93.75245471423517 83.5211499803447 H 0.0 **** 0.06
31063 H 118.00146230020417 94.0920408870245 84.63826626068905 H 0.0 **** 0.06
31064 H 119.50134127615677 93.35397672740606 85.24954702643025 H 0.0 **** 0.06
31065 H 118.40300015096756 92.41048633967728 84.2136987992041 H 0.0 **** 0.06
31066 C 61.894176538064244 114.02506203289065 78.94376232910321 C 0.0 **** -0.24
31067 H 61.44828012983146 114.72248577095618 78.23564262342624 H 0.0 **** 0.06
31068 H 62.27939198766671 114.57478591770015 79.80322252207976 H 0.0 **** 0.06
31069 H 62.710239308113046 113.48784966624928 78.46036136062665 H 0.0 **** 0.06
31070 H 61.137980996204874 113.31316388780837 79.2776897009862 H 0.0 **** 0.06
31071 C 114.6639888684092 119.70327807127373 16.56648435926337 C 0.0 **** -0.24
31072 H 115.28336539787153 119.45562356124996 15.704485510300685 H 0.0 **** 0.06
31073 H 113.72714440125537 120.14512662350234 16.225290250895455 H 0.0 **** 0.06
31074 H 115.19256200745943 120.41482092007314 17.199853299370886 H 0.0 **** 0.06
31075 H 114.45333699438933 118.79740115554705 17.13412317188886 H 0.0 **** 0.06
31076 C 18.356435595143296 50.12986535442333 124.76934453283039 C 0.0 **** -0.24
31077 H 18.678836934693763 50.69128549299431 125.64506696021974 H 0.0 **** 0.06
31078 H 18.597059846148326 49.07495416140512 124.90436840733723 H 0.0 **** 0.06
31079 H 18.869651765637954 50.5097743367221 123.88529790339736 H 0.0 **** 0.06
31080 H 17.279615423958674 50.243127630419906 124.64104382595902 H 0.0 **** 0.06
31081 C 79.01600802771014 48.081325452915834 97.72955224729954 C 0.0 **** -0.24
31082 H 79.90653280268415 47.664042172063674 97.2602375141871 H 0.0 **** 0.06
31083 H 78.47638159429056 48.69230166055773 97.00604520456709 H 0.0 **** 0.06
31084 H 79.30827128813632 48.69746020573582 98.58047014057954 H 0.0 **** 0.06
31085 H 78.37324191952007 47.270822151719784 98.07300120564682 H 0.0 **** 0.06
31086 C 4.140306116986665 95.24528909549423 100.83310536951286 C 0.0 **** -0.24
31087 H 4.077169011275828 96.16845765322785 100.25539032832872 H 0.0 **** 0.06
31088 H 3.296580396067725 95.18984356758072 101.52222570979966 H 0.0 **** 0.06
31089 H 5.071938995919766 95.23355169197482 101.39798272842128 H 0.0 **** 0.06
31090 H 4.114454128109003 94.3914925761781 100.15662905733124 H 0.0 **** 0.06
31091 C 74.23343314925411 84.84616707795627 8.14325294743361 C 0.0 **** -0.24
31092 H 74.85453916708026 85.09159317219681 7.281056642428041 H 0.0 **** 0.06
31093 H 74.23699660867324 85.68156498745479 8.84345556117239 H 0.0 **** 0.06
31094 H 74.62939683930139 83.95735079855433 8.634600527251195 H 0.0 **** 0.06
31095 H 73.21335141800704 84.65298004761337 7.811824104976324 H 0.0 **** 0.06
31096 C 79.68820320735018 17.89266192897972 28.533269941067033 C 0.0 **** -0.24
31097 H 79.17296027572233 17.297905052949943 27.77920825354775 H 0.0 **** 0.06
31098 H 80.02079929393335 18.83191076767112 28.090385572894746 H 0.0 **** 0.06
31099 H 80.55165202577099 17.339110538665494 28.90434558064527 H 0.0 **** 0.06
31100 H 79.00863750784512 18.099923268622945 29.35962896557119 H 0.0 **** 0.06
31101 C 113.70569036768083 38.866725546913926 56.37607712083198 C 0.0 **** -0.24
31102 H 114.26695840961389 37.99938929275419 56.72210026931589 H 0.0 **** 0.06
31103 H 114.39228365013716 39.59408488843158 55.941894952692024 H 0.0 **** 0.06
31104 H 113.18120412626135 39.32016248675953 57.21690895112553 H 0.0 **** 0.06
31105 H 112.98247054253113 38.553971877961004 55.62218897249464 H 0.0 **** 0.06
31106 C 30.165468734048773 90.04033332448242 131.79626577748894 C 0.0 **** -0.24
31107 H 30.28067351310864 88.98202238777992 132.0316015134453 H 0.0 **** 0.06
31108 H 30.922479458262842 90.61441448633101 132.33022984804586 H 0.0 **** 0.06
31109 H 29.17371655442878 90.37396361462623 132.10266998156686 H 0.0 **** 0.06
31110 H 30.28452759833857 90.18848357579856 130.72334988459107 H 0.0 **** 0.06
31111 C 33.22891331572976 5.989290312966091 72.40730009293068 C 0.0 **** -0.24
31112 H 34.20866689261832 6.373318841259902 72.12320137752758 H 0.0 **** 0.06
31113 H 32.47603433803827 6.761284052263022 72.2453988406515 H 0.0 **** 0.06
31114 H 33.24145048281554 5.708650193744461 73.46050378033686 H 0.0 **** 0.06
31115 H 32.9914452594322 5.115871531031246 71.80126581788511 H 0.0 **** 0.06
31116 C 126.36705931687641 74.12674214180937 90.3456639327919 C 0.0 **** -0.24
31117 H 125.56248942479368 74.84863794409834 90.48894981033473 H 0.0 **** 0.06
31118 H 126.92094523438834 74.01125658038819 91.27789222408809 H 0.0 **** 0.06
31119 H 127.03895470431308 74.4834821945196 89.56501024124634 H 0.0 **** 0.06
31120 H 125.94538400939467 73.16623744224894 90.05169002464545 H 0.0 **** 0.06
31121 C 64.25742554601878 41.0773201250301 80.81838854071205 C 0.0 **** -0.24
31122 H 64.40786930542063 40.235660092080764 81.49450844786683 H 0.0 **** 0.06
31123 H 65.07096785852215 41.110016191072475 80.0929466167079 H 0.0 **** 0.06
31124 H 64.24278138643778 42.00528100787568 81.39125787603541 H 0.0 **** 0.06
31125 H 63.308322886408305 40.95792848205133 80.29617802491433 H 0.0 **** 0.06
31126 C 46.19266612175021 103.23731997361911 109.33812658102909 C 0.0 **** -0.24
31127 H 47.19585724138376 103.45528718040183 108.97242873507366 H 0.0 **** 0.06
31128 H 45.67332084611148 102.6039113107374 108.61806889385053 H 0.0 **** 0.06
31129 H 45.64176435340998 104.1693521043803 109.46554881266076 H 0.0 **** 0.06
31130 H 46.25907491177256 102.72028312605438 110.29491641696683 H 0.0 **** 0.06
31131 C 100.51138789264051 109.13014287732244 102.37619755713109 C 0.0 **** -0.24
31132 H 99.93063165033395 108.3365705298376 102.84728695196657 H 0.0 **** 0.06
31133 H 100.0525419145676 110.09445933123126 102.59507930302266 H 0.0 **** 0.06
31134 H 100.53234961354133 108.97316115544295 101.29761449495749 H 0.0 **** 0.06
31135 H 101.52933825831347 109.11393037240192 102.76604276534306 H 0.0 **** 0.06
31136 C 80.86547798560842 101.55910980896864 68.81493051436786 C 0.0 **** -0.24
31137 H 81.09495634638402 100.49446874468775 68.76692881665072 H 0.0 **** 0.06
31138 H 80.0295546519669 101.71954706910451 69.49713371826887 H 0.0 **** 0.06
31139 H 80.59705109227046 101.91783258786378 67.8208027180341 H 0.0 **** 0.06
31140 H 81.73799203147803 102.10412558486577 69.17438298557668 H 0.0 **** 0.06
31141 C 22.332882777668217 7.470271210373255 115.38621801682868 C 0.0 **** -0.24
31142 H 21.454958664123644 6.870410370148079 115.62873058356533 H 0.0 **** 0.06
31143 H 22.647374191052634 7.256594157243285 114.36458337622494 H 0.0 **** 0.06
31144 H 23.14202943277352 7.222757205873108 116.07426934479221 H 0.0 **** 0.06
31145 H 22.08794673549042 8.527717155595155 115.47791534567355 H 0.0 **** 0.06
31146 C 51.18622358229993 72.88398871927598 85.9868936913427 C 0.0 **** -0.24
31147 H 50.99404747135094 73.4076304023103 86.92383170045824 H 0.0 **** 0.06
31148 H 50.696403161559545 73.4124011636365 85.16889411093366 H 0.0 **** 0.06
31149 H 50.794046879465895 71.86927203050516 86.05137248098067 H 0.0 **** 0.06
31150 H 52.260378802207015 72.8476266134893 85.80522249324943 H 0.0 **** 0.06
31151 C 54.05914996733789 125.01178950638482 34.470130481643025 C 0.0 **** -0.24
31152 H 53.20606067266981 125.07718187268492 35.14555372798691 H 0.0 **** 0.06
31153 H 53.716742203624975 124.70099385801257 33.482592586216015 H 0.0 **** 0.06
31154 H 54.77084445798246 124.28106049840207 34.85482665725965 H 0.0 **** 0.06
31155 H 54.54058101726409 125.98625725270844 34.39881610186802 H 0.0 **** 0.06
31156 C 3.697401077481196 133.49818026073604 51.51549456071416 C 0.0 **** -0.24
31157 H 3.3691884222322095 133.26718285819572 52.52848107303265 H 0.0 **** 0.06
31158 H 4.6070011950610095 132.93907985942644 51.2922222860733 H 0.0 **** 0.06
31159 H 3.897290248882914 134.5666436043905 51.432221018185714 H 0.0 **** 0.06
31160 H 2.916944506427253 133.21812827678474 50.80835846012184 H 0.0 **** 0.06
31161 C 51.060746991134025 104.99472600062478 128.7946018454061 C 0.0 **** -0.24
31162 H 51.18168222566591 105.11817137735449 127.71885237482734 H 0.0 **** 0.06
31163 H 52.04140936417366 104.97464154897418 129.27055248492064 H 0.0 **** 0.06
31164 H 50.538550494849375 104.05966208722957 128.99653833424364 H 0.0 **** 0.06
31165 H 50.481093256103435 105.82781558131526 129.19258095888355 H 0.0 **** 0.06
31166 C 7.589528950730198 25.89193470685106 51.22793906637702 C 0.0 **** -0.24
31167 H 6.59599181379383 26.24896503472337 51.49761725936196 H 0.0 **** 0.06
31168 H 7.511733458979592 25.2066857166883 50.38316051618648 H 0.0 **** 0.06
31169 H 8.031165126769935 25.372372965671218 52.078919792216 H 0.0 **** 0.06
31170 H 8.218169813883378 26.739084512845636 50.95275738961902 H 0.0 **** 0.06
31171 C 102.78956256895498 42.8235139827897 66.73462593894027 C 0.0 **** -0.24
31172 H 103.4296508457756 42.22691334354445 67.38444031842306 H 0.0 **** 0.06
31173 H 101.98060368796763 42.20148114480912 66.35154665396988 H 0.0 **** 0.06
31174 H 103.37705675117417 43.20994123508943 65.90221943204489 H 0.0 **** 0.06
31175 H 102.37250840261353 43.655873626085004 67.30217183465572 H 0.0 **** 0.06
31176 C 79.2869442239313 109.76758309442346 96.40247302345716 C 0.0 **** -0.24
31177 H 78.60820649364626 109.5236479987413 97.21991466554823 H 0.0 **** 0.06
31178 H 80.13752424677789 109.08635924168115 96.42167564389928 H 0.0 **** 0.06
31179 H 79.63768355452095 110.79306296659936 96.51433441530082 H 0.0 **** 0.06
31180 H 78.76144014679772 109.66498326821377 95.45215998030073 H 0.0 **** 0.06
31181 C 77.68497261079195 17.84576405399217 87.57335315920056 C 0.0 **** -0.24
31182 H 76.74057169963775 17.52499885719196 87.1339801322058 H 0.0 **** 0.06
31183 H 78.28515979272309 18.349408494531033 86.8155446817513 H 0.0 **** 0.06
31184 H 78.22552405870549 16.97652470278568 87.9476019159514 H 0.0 **** 0.06
31185 H 77.48654024938465 18.532809253607184 88.39666452592445 H 0.0 **** 0.06
31186 C 123.22462637012273 81.20109000353693 91.95810200845409 C 0.0 **** -0.24
31187 H 124.2995339238829 81.03115480716673 92.0309917330377 H 0.0 **** 0.06
31188 H 122.88232754144548 81.74378091237925 92.83953673358957 H 0.0 **** 0.06
31189 H 122.7088727322265 80.24334217255226 91.89640685367993 H 0.0 **** 0.06
31190 H 123.01040551788759 81.78780985129981 91.06371875787553 H 0.0 **** 0.06
31191 C 37.89693416539337 115.98223446210417 119.93366059842361 C 0.0 **** -0.24
31192 H 38.25128672317763 116.55542040017457 119.0764160314954 H 0.0 **** 0.06
31193 H 37.15921214662346 116.56776952739307 120.48203634389347 H 0.0 **** 0.06
31194 H 38.73821486153731 115.7516569700328 120.58773238449578 H 0.0 **** 0.06
31195 H 37.44124440073188 115.05508782196921 119.58620556219705 H 0.0 **** 0.06
31196 C 102.62205150802346 53.00177918407445 129.42055631166403 C 0.0 **** -0.24
31197 H 102.88724540763221 52.02941903435038 129.00603372445752 H 0.0 **** 0.06
31198 H 103.01442276280505 53.0837161007417 130.4349030324076 H 0.0 **** 0.06
31199 H 101.53742640915964 53.104549661336904 129.43991221009557 H 0.0 **** 0.06
31200 H 103.05027103088143 53.79042841918695 128.80056231042226 H 0.0 **** 0.06
31201 C 8.08934448018492 100.72286873145335 24.231032186792845 C 0.0 **** -0.24
31202 H 7.485845177736955 100.90385526516654 25.120902156175447 H 0.0 **** 0.06
31203 H 8.714416162929403 99.84362438684106 24.38928157660908 H 0.0 **** 0.06
31204 H 8.721080410314286 101.58994126506994 24.038771980135408 H 0.0 **** 0.06
31205 H 7.433525091269001 100.55389431186714 23.377088613848628 H 0.0 **** 0.06
31206 C 1.2522090893122027 93.5162571649144 91.80021886614963 C 0.0 **** -0.24
31207 H 0.37880868266924494 93.83141136070375 91.22905721032654 H 0.0 **** 0.06
31208 H 1.5742490494912147 94.3299132979015 92.45033196140207 H 0.0 **** 0.06
31209 H 2.06005078631145 93.25552910708541 91.11669365080866 H 0.0 **** 0.06
31210 H 0.9948217847513661 92.6465506400931 92.40638673852504 H 0.0 **** 0.06
31211 C 72.31452267755472 106.52430231945495 55.13514123607189 C 0.0 **** -0.24
31212 H 72.55038672658763 107.0731060510858 54.222720426784576 H 0.0 **** 0.06
31213 H 71.51660184568848 107.03802634215359 55.672016519462886 H 0.0 **** 0.06
31214 H 73.20108875819106 106.47024119206876 55.76604692495104 H 0.0 **** 0.06
31215 H 71.98884200926092 105.51605412569278 54.87788887599288 H 0.0 **** 0.06
31216 C 101.7533470501892 102.67128501544113 58.533782711544745 C 0.0 **** -0.24
31217 H 101.34744042812287 101.85219993592659 59.12732167523549 H 0.0 **** 0.06
31218 H 101.69647769259149 102.4153941287669 57.4747176070712 H 0.0 **** 0.06
31219 H 102.7938101135874 102.84058060682042 58.81153024187151 H 0.0 **** 0.06
31220 H 101.17562841368462 103.57594925245098 58.719569664367384 H 0.0 **** 0.06
31221 C 28.967884865512247 40.16707498678527 117.53054720018807 C 0.0 **** -0.24
31222 H 29.11335718659862 41.09765481721102 118.0786384508194 H 0.0 **** 0.06
31223 H 29.543222843291005 40.19639903824963 116.60559999051958 H 0.0 **** 0.06
31224 H 27.910088268653368 40.04398477640652 117.2966920041535 H 0.0 **** 0.06
31225 H 29.304592528065 39.32993369992263 118.14260562032865 H 0.0 **** 0.06
31226 C 77.88894947916123 46.09507920976333 101.43982998571059 C 0.0 **** -0.24
31227 H 77.05499598418504 45.39692742222299 101.36941194780857 H 0.0 **** 0.06
31228 H 77.70574986367615 46.94763178797854 100.7863500444731 H 0.0 **** 0.06
31229 H 78.80839093041891 45.59395244720079 101.13512766385197 H 0.0 **** 0.06
31230 H 77.98735508585031 46.43971246601171 102.4688033951011 H 0.0 **** 0.06
31231 C 61.23474572870238 57.77450241906719 58.250528557808124 C 0.0 **** -0.24
31232 H 61.03577645977302 57.65231489155897 59.31507234961764 H 0.0 **** 0.06
31233 H 60.29154383912825 57.79145672291564 57.70468261073901 H 0.0 **** 0.06
31234 H 61.84513885685226 56.94274158418733 57.897270500224494 H 0.0 **** 0.06
31235 H 61.767799226787176 58.71167614719624 58.086246803442705 H 0.0 **** 0.06
31236 C 86.87852586249512 60.76705990677999 96.40012828989495 C 0.0 **** -0.24
31237 H 87.57792282433627 60.99179029626896 97.20544140146771 H 0.0 **** 0.06
31238 H 86.28374360048815 59.89309979621811 96.66791346951166 H 0.0 **** 0.06
31239 H 87.43368773059913 60.562543607540476 95.48435677272569 H 0.0 **** 0.06
31240 H 86.21995320886923 61.621461335168306 96.24245348818106 H 0.0 **** 0.06
31241 C 38.8612492787081 73.87876697626575 92.52523027457386 C 0.0 **** -0.24
31242 H 39.859478377209314 73.51116368643335 92.28680299896888 H 0.0 **** 0.06
31243 H 38.714479277465784 74.85503533961423 92.06241309085948 H 0.0 **** 0.06
31244 H 38.75628578965376 73.96893189674427 93.60645643931224 H 0.0 **** 0.06
31245 H 38.11615523368843 73.1804780486105 92.14359233861927 H 0.0 **** 0.06
31246 C 29.806903394233238 74.70811355762555 118.21450488063476 C 0.0 **** -0.24
31247 H 29.220858002719154 73.90838546072058 117.76310841372174 H 0.0 **** 0.06
31248 H 29.16070441217554 75.56185353984722 118.41799436103497 H 0.0 **** 0.06
31249 H 30.600981552745246 75.00788554932389 117.52902855360844 H 0.0 **** 0.06
31250 H 30.247401892339767 74.35445757167008 119.14715037458501 H 0.0 **** 0.06
31251 C 123.1113227224693 13.48454027172808 70.90869989642005 C 0.0 **** -0.24
31252 H 122.87046310967874 12.42213086490414 70.88061192942556 H 0.0 **** 0.06
31253 H 123.11596946761678 13.829117178323372 71.94349905219373 H 0.0 **** 0.06
31254 H 122.36314307140708 14.04078718715192 70.3440312878565 H 0.0 **** 0.06
31255 H 124.09437794031352 13.64656362398712 70.46651561667665 H 0.0 **** 0.06
31256 C 87.34490566473616 14.11634585021855 69.68135504537977 C 0.0 **** -0.24
31257 H 88.2186448044031 14.719891011949429 69.9294946614551 H 0.0 **** 0.06
31258 H 87.5242403275695 13.081841491756695 69.9734489570875 H 0.0 **** 0.06
31259 H 87.16288168943981 14.1663955352533 68.60841035661053 H 0.0 **** 0.06
31260 H 86.47597136960187 14.500266268874256 70.21592624701975 H 0.0 **** 0.06
31261 C 48.78827762599671 61.26304569354727 102.88706428418885 C 0.0 **** -0.24
31262 H 48.61112156656803 60.68127645352732 101.9823033438845 H 0.0 **** 0.06
31263 H 48.72971811384964 60.608567806830365 103.75673004789616 H 0.0 **** 0.06
31264 H 48.034560654448484 62.04644700285206 102.96895565284154 H 0.0 **** 0.06
31265 H 49.77917551247417 61.71548601545447 102.83943834441567 H 0.0 **** 0.06
31266 C 36.51130254848428 94.41339780503775 122.31789674348377 C 0.0 **** -0.24
31267 H 37.54869648987139 94.16054059262645 122.09859305526683 H 0.0 **** 0.06
31268 H 36.01515956220658 94.73677659756906 121.40345685955822 H 0.0 **** 0.06
31269 H 36.48082705917341 95.2179255160351 123.05267525991067 H 0.0 **** 0.06
31270 H 36.000937165847915 93.53697673632881 122.71825831036142 H 0.0 **** 0.06
31271 C 78.27879198258096 15.452969030830843 12.576613350436503 C 0.0 **** -0.24
31272 H 77.28398884530563 15.011296552887302 12.519796148534141 H 0.0 **** 0.06
31273 H 78.3502508134765 16.281353035535915 11.871272530761303 H 0.0 **** 0.06
31274 H 79.02591689496246 14.698797509313977 12.327955401319059 H 0.0 **** 0.06
31275 H 78.4557145793418 15.819811854402303 13.587782381963109 H 0.0 **** 0.06
31276 C 96.44479325621654 89.49321954700275 52.68661198564703 C 0.0 **** -0.24
31277 H 95.88365349245021 89.48185950372083 51.75216124775764 H 0.0 **** 0.06
31278 H 97.33410342904408 90.11267772413402 52.56701649120048 H 0.0 **** 0.06
31279 H 96.74122102159106 88.47675068430289 52.94467917304381 H 0.0 **** 0.06
31280 H 95.82045096876664 89.90349919870948 53.48107748724075 H 0.0 **** 0.06
31281 C 38.672036881618794 101.38507999916379 43.76462319652944 C 0.0 **** -0.24
31282 H 38.97325924203 102.36438191540294 43.39170639321404 H 0.0 **** 0.06
31283 H 39.02929464045104 100.61234530984775 43.08383537263214 H 0.0 **** 0.06
31284 H 37.58428613245076 101.33982900797743 43.82851978734837 H 0.0 **** 0.06
31285 H 39.10086064604758 101.2257378831197 44.75348076230324 H 0.0 **** 0.06
31286 C 104.91452619525214 127.3535312725073 119.58361972849195 C 0.0 **** -0.24
31287 H 105.70656400865224 128.08039200974298 119.3995933766434 H 0.0 **** 0.06
31288 H 103.94427763005389 127.84381464064052 119.49839036016684 H 0.0 **** 0.06
31289 H 105.02678080863728 126.9403392708918 120.58641201573963 H 0.0 **** 0.06
31290 H 104.98156451140635 126.55090875563042 118.84983571624463 H 0.0 **** 0.06
31291 C 30.83572902006013 63.95736781675987 56.197675947534194 C 0.0 **** -0.24
31292 H 31.180027868592887 63.57235535398884 57.15807733064108 H 0.0 **** 0.06
31293 H 30.28090611839822 63.17949454358512 55.67270756822572 H 0.0 **** 0.06
31294 H 31.694728564735833 64.25939262082152 55.59899754087128 H 0.0 **** 0.06
31295 H 30.18684696325863 64.81829799335176 56.36311910871039 H 0.0 **** 0.06
31296 C 42.07452276304709 15.890131356846183 6.13492970540716 C 0.0 **** -0.24
31297 H 42.140187516484026 14.804067471796316 6.198541260101763 H 0.0 **** 0.06
31298 H 41.419404914029755 16.261545967402434 6.92336796134731 H 0.0 **** 0.06
31299 H 41.67142634046184 16.172932828081095 5.1633981403020925 H 0.0 **** 0.06
31300 H 43.06836842336299 16.321901837155636 6.255557834915351 H 0.0 **** 0.06
31301 C 54.446464040736274 34.97248460235595 4.987656771143861 C 0.0 **** -0.24
31302 H 53.744074998663976 34.38228268384621 5.576777659349915 H 0.0 **** 0.06
31303 H 53.9387694116479 35.37007710556371 4.108898883917476 H 0.0 **** 0.06
31304 H 55.27671981613449 34.34068795506221 4.674073693508035 H 0.0 **** 0.06
31305 H 54.82510931841813 35.79583112304604 5.593611669346501 H 0.0 **** 0.06
31306 C 135.20745517069835 92.88282204524609 44.390119069379665 C 0.0 **** -0.24
31307 H 136.22204786733388 93.22704339766051 44.1892375403591 H 0.0 **** 0.06
31308 H 134.98070120974697 92.02800806518138 43.75315772789057 H 0.0 **** 0.06
31309 H 134.50303039423136 93.68799104755854 44.183407594273945 H 0.0 **** 0.06
31310 H 135.12429011690128 92.58853356608375 45.43687691085492 H 0.0 **** 0.06
31311 C 64.53283687141075 26.034312409966958 48.67817197663419 C 0.0 **** -0.24
31312 H 65.42283128986912 25.713189598803027 48.13671639197037 H 0.0 **** 0.06
31313 H 63.87763802383594 25.17907152629079 48.83928838485417 H 0.0 **** 0.06
31314 H 64.0072839461208 26.7917480042073 48.095858876244165 H 0.0 **** 0.06
31315 H 64.82614484483858 26.45497111425928 49.6401172761465 H 0.0 **** 0.06
31316 C 63.9330325923131 84.408795766975 32.676435660480834 C 0.0 **** -0.24
31317 H 64.6346075952193 84.16709463396285 33.47562099321917 H 0.0 **** 0.06
31318 H 62.954479487205234 84.62651459786548 33.10731442518889 H 0.0 **** 0.06
31319 H 63.8500250577317 83.56035886524121 31.99745361462915 H 0.0 **** 0.06
31320 H 64.2908399586701 85.27977296324602 32.12884311209717 H 0.0 **** 0.06
31321 C 99.53662825866347 78.11677431754734 37.30429974304046 C 0.0 **** -0.24
31322 H 100.53161752838969 77.93140004837949 36.90094661358063 H 0.0 **** 0.06
31323 H 98.79011194271196 77.66406422397074 36.65120552797538 H 0.0 **** 0.06
31324 H 99.36355986811701 79.19132905856293 37.36581003960134 H 0.0 **** 0.06
31325 H 99.46076964022122 77.6792517755097 38.30006557201543 H 0.0 **** 0.06
31326 C 109.0397051215696 32.96823937506767 108.81966574421415 C 0.0 **** -0.24
31327 H 108.70600580266677 32.467456711576716 107.9114854228992 H 0.0 **** 0.06
31328 H 109.50254688982949 32.240253035340686 109.48666686396155 H 0.0 **** 0.06
31329 H 108.1854777338694 33.42609676546337 109.31744400461582 H 0.0 **** 0.06
31330 H 109.76688116148796 33.7395271312642 108.56236951818619 H 0.0 **** 0.06
31331 C 17.802017701362104 16.879217706814558 99.20353537316717 C 0.0 **** -0.24
31332 H 18.833879289248934 16.753372324707 98.87441274872117 H 0.0 **** 0.06
31333 H 17.781787208476786 17.485925679296187 100.10927333774544 H 0.0 **** 0.06
31334 H 17.364389220168057 15.902485839794025 99.4096912137598 H 0.0 **** 0.06
31335 H 17.22971247886732 17.376776581269638 98.4202499939831 H 0.0 **** 0.06
31336 C 87.88139877955876 53.92624223661625 133.5303894758148 C 0.0 **** -0.24
31337 H 88.32064037026366 54.29671454784864 134.45689753110446 H 0.0 **** 0.06
31338 H 87.0192172467136 54.53891312686244 133.26724989280393 H 0.0 **** 0.06
31339 H 87.5641598303836 52.89176343488742 133.66769639847993 H 0.0 **** 0.06
31340 H 88.62170813157216 53.976440350477276 132.73248707957978 H 0.0 **** 0.06
31341 C 110.90039163161529 72.55003216358377 13.126286145461894 C 0.0 **** -0.24
31342 H 111.9743969349415 72.73032393377541 13.166492177487203 H 0.0 **** 0.06
31343 H 110.49542912916598 72.54096553017558 14.13857625324755 H 0.0 **** 0.06
31344 H 110.7111332506278 71.58777919298865 12.649552896810278 H 0.0 **** 0.06
31345 H 110.42078691986791 73.34158322446702 12.549221704799596 H 0.0 **** 0.06
31346 C 0.3914217489858629 132.5699408099239 81.08786655562088 C 0.0 **** -0.24
31347 H 0.9741408314292244 133.3275336269503 80.56261831311319 H 0.0 **** 0.06
31348 H 0.8145943085019951 132.40891109858822 82.0789676811367 H 0.0 **** 0.06
31349 H 0.41820402598443707 131.63751312646878 80.52491243838034 H 0.0 **** 0.06
31350 H -0.6405085263786532 132.9075589625844 81.18287677573078 H 0.0 **** 0.06
31351 C 34.67868352458163 125.62284804511195 12.074563394073511 C 0.0 **** -0.24
31352 H 34.00521449848685 124.7994942275177 12.312681068804793 H 0.0 **** 0.06
31353 H 35.71154935101231 125.2787623162132 12.146496440824187 H 0.0 **** 0.06
31354 H 34.51754626703729 126.43935200943535 12.778414315715604 H 0.0 **** 0.06
31355 H 34.48103301198728 125.97163332909881 11.061664536083153 H 0.0 **** 0.06
31356 C 91.28114929501459 90.01466883506276 58.40201917667571 C 0.0 **** -0.24
31357 H 91.2305049679857 91.1030155860606 58.379534985323005 H 0.0 **** 0.06
31358 H 91.96310202563734 89.69928738105003 59.19217049687211 H 0.0 **** 0.06
31359 H 91.6440883102444 89.64917037847883 57.44154106720299 H 0.0 **** 0.06
31360 H 90.28826823364486 89.60923500655014 58.59484458118135 H 0.0 **** 0.06
31361 C 107.99863380415297 111.67715646671172 28.819576564942736 C 0.0 **** -0.24
31362 H 107.52748060574058 111.57501500457116 27.841759164964493 H 0.0 **** 0.06
31363 H 107.73047347588992 110.82251304003609 29.442160533911483 H 0.0 **** 0.06
31364 H 107.65468364727927 112.59600352036207 29.294995818579167 H 0.0 **** 0.06
31365 H 109.08091951665872 111.71309522234574 28.69917283087259 H 0.0 **** 0.06
31366 C 105.85469294860732 6.033918883394961 115.11005163757568 C 0.0 **** -0.24
31367 H 106.92046589921442 5.87206061828951 115.27383508714996 H 0.0 **** 0.06
31368 H 105.28508386276367 5.477720871158311 115.8550988572882 H 0.0 **** 0.06
31369 H 105.58400243873173 5.687769845292365 114.11226579913506 H 0.0 **** 0.06
31370 H 105.63073184673047 7.096574814570403 115.1995660302523 H 0.0 **** 0.06
31371 C 81.16583486206845 1.4943360422090564 126.8690534625826 C 0.0 **** -0.24
31372 H 80.27177040985435 2.0393317025776128 127.17480438824336 H 0.0 **** 0.06
31373 H 81.85455963714942 2.1772337770670447 126.3707383295771 H 0.0 **** 0.06
31374 H 80.88642730222489 0.6948244958944088 126.18206815182306 H 0.0 **** 0.06
31375 H 81.64759740169232 1.067158720388079 127.74780222728482 H 0.0 **** 0.06
31376 C 82.93594289893434 114.96439463082552 5.236703527055738 C 0.0 **** -0.24
31377 H 83.85665931833068 115.45022540639664 4.913232033004647 H 0.0 **** 0.06
31378 H 82.66517601438153 114.18618508264746 4.522571681674549 H 0.0 **** 0.06
31379 H 82.1362126978205 115.70256032685478 5.290980963140839 H 0.0 **** 0.06
31380 H 83.0866721920986 114.51886585431802 6.219846363385159 H 0.0 **** 0.06
31381 C 42.56681695571979 98.86316542461469 9.345904547722597 C 0.0 **** -0.24
31382 H 42.36949352964274 99.60344058098694 10.120816277636521 H 0.0 **** 0.06
31383 H 42.58056663554518 97.86746978504256 9.789035674001127 H 0.0 **** 0.06
31384 H 43.532563368202204 99.06890546651823 8.884254285711677 H 0.0 **** 0.06
31385 H 41.7846800400327 98.91306977053867 8.58811600178359 H 0.0 **** 0.06
31386 C 66.25460389260559 72.9436907349056 30.342659497248775 C 0.0 **** -0.24
31387 H 66.73798225475554 73.1613845604515 29.39008465241716 H 0.0 **** 0.06
31388 H 65.52744536646614 72.14302488715907 30.205824703928357 H 0.0 **** 0.06
31389 H 65.74641030600941 73.83798121841755 30.703384979004653 H 0.0 **** 0.06
31390 H 67.00600327431218 72.6342142773849 31.068645944943768 H 0.0 **** 0.06
31391 C 24.671123782235043 0.9457382446015572 3.396584463350621 C 0.0 **** -0.24
31392 H 25.076602983493046 0.02891779753059609 3.824749100021279 H 0.0 **** 0.06
31393 H 25.488628879676412 1.5714992123754428 3.0374650908053695 H 0.0 **** 0.06
31394 H 24.10890805737492 1.4849470055037841 4.159361284331396 H 0.0 **** 0.06
31395 H 24.01106284486707 0.6977370187375982 2.5654533026025206 H 0.0 **** 0.06
31396 C 88.82583892561073 23.743719916170107 93.42573077196391 C 0.0 **** -0.24
31397 H 89.43524912108549 23.50813543623096 94.29900695549114 H 0.0 **** 0.06
31398 H 89.06998765206814 23.05496586209452 92.61702235141469 H 0.0 **** 0.06
31399 H 89.02919460555042 24.7660320855324 93.10649673429981 H 0.0 **** 0.06
31400 H 87.77161274660374 23.64650498253573 93.68149119989694 H 0.0 **** 0.06
31401 C 104.50525960999055 129.96082116375615 57.98504668580449 C 0.0 **** -0.24
31402 H 103.58510434430423 129.39011552644635 58.108620161780436 H 0.0 **** 0.06
31403 H 104.35153660606193 130.74108335158542 57.23979491224367 H 0.0 **** 0.06
31404 H 105.30416086299934 129.2948031298857 57.656138010816335 H 0.0 **** 0.06
31405 H 104.78111807368302 130.41516755833516 58.93649952707392 H 0.0 **** 0.06
31406 C 125.39088954125114 47.54112077888021 124.48006803706696 C 0.0 **** -0.24
31407 H 125.97400646137832 47.6045734135119 123.56110693734773 H 0.0 **** 0.06
31408 H 124.32956815581437 47.49664127211787 124.23415832410242 H 0.0 **** 0.06
31409 H 125.5854540040067 48.42011475446543 125.09465841074287 H 0.0 **** 0.06
31410 H 125.6745281185328 46.6442123705196 125.02941078990149 H 0.0 **** 0.06
31411 C 112.46463193617541 125.59376378091088 32.70117854001086 C 0.0 **** -0.24
31412 H 112.95617779495035 124.77589642972254 32.172886199891934 H 0.0 **** 0.06
31413 H 113.0355121536825 125.84190931842267 33.59646881365498 H 0.0 **** 0.06
31414 H 111.45731946561074 125.28984527014765 32.984039174896054 H 0.0 **** 0.06
31415 H 112.41248188905465 126.46645266853403 32.05017428480221 H 0.0 **** 0.06
31416 C 60.226192340719564 65.52447384449805 36.70399357105563 C 0.0 **** -0.24
31417 H 59.952922035201865 66.16083162739243 37.54565690668005 H 0.0 **** 0.06
31418 H 60.802558593341956 66.10442071762343 35.983224102792974 H 0.0 **** 0.06
31419 H 59.3221364443157 65.1464165294465 36.22623454926986 H 0.0 **** 0.06
31420 H 60.826500916510284 64.68782107496695 37.06104091637917 H 0.0 **** 0.06
31421 C 136.99925413521197 16.272344044872398 101.90511794225262 C 0.0 **** -0.24
31422 H 136.04816971033574 15.739169721552656 101.88783594532914 H 0.0 **** 0.06
31423 H 137.58970347983876 15.99184817573223 101.03290483819178 H 0.0 **** 0.06
31424 H 137.54427098695135 16.011943780900054 102.81299978587258 H 0.0 **** 0.06
31425 H 136.813289993779 17.34618918514704 101.88829503136135 H 0.0 **** 0.06
31426 C 64.75564152731266 103.90220877425645 46.542576160080685 C 0.0 **** -0.24
31427 H 63.97337826514703 104.56643703521559 46.91143401659366 H 0.0 **** 0.06
31428 H 64.43846205524719 102.86589735654798 46.66460464707535 H 0.0 **** 0.06
31429 H 65.67172506095758 104.07140615794242 47.10794969848432 H 0.0 **** 0.06
31430 H 64.93664656499561 104.10556025809251 45.48680750986675 H 0.0 **** 0.06
31431 C 31.557870317453194 54.22799588309289 103.90453304339718 C 0.0 **** -0.24
31432 H 31.90495135620381 54.40433637797224 104.92264641865819 H 0.0 **** 0.06
31433 H 32.060436198667844 53.35115114493175 103.49656749210017 H 0.0 **** 0.06
31434 H 31.78649125984404 55.09838756478638 103.28768464127272 H 0.0 **** 0.06
31435 H 30.48099678306707 54.06111435904427 103.91108926725717 H 0.0 **** 0.06
31436 C 24.013578043689655 93.61217763698791 1.115588457291043 C 0.0 **** -0.24
31437 H 25.077995566594687 93.54799473462633 0.8846684243565583 H 0.0 **** 0.06
31438 H 23.62725461183684 94.57476741813382 0.7806807449538553 H 0.0 **** 0.06
31439 H 23.86978507687968 93.51563963992128 2.191868658866067 H 0.0 **** 0.06
31440 H 23.48316489457673 92.8083502820002 0.604914839447698 H 0.0 **** 0.06
31441 C 118.79545799961444 88.72610834591644 100.13324131219028 C 0.0 **** -0.24
31442 H 118.43514916418249 88.55387549671666 99.11866874948885 H 0.0 **** 0.06
31443 H 118.66304679401784 87.81828631035877 100.72382796610546 H 0.0 **** 0.06
31444 H 118.23093346109172 89.54098764267555 100.5860700033787 H 0.0 **** 0.06
31445 H 119.85322824804328 88.9885119642403 100.10265486520859 H 0.0 **** 0.06
31446 C 132.4543195208957 110.20855640558176 17.471360093936823 C 0.0 **** -0.24
31447 H 132.23826261998164 109.15975053550046 17.673119085967926 H 0.0 **** 0.06
31448 H 133.5338703354298 110.36171686808521 17.459740451928212 H 0.0 **** 0.06
31449 H 132.00763551948506 110.82839530754157 18.248243072227012 H 0.0 **** 0.06
31450 H 132.03745888125414 110.48504205337909 16.502207877279545 H 0.0 **** 0.06
31451 C 96.46284952600303 101.43745396908591 127.28182823850071 C 0.0 **** -0.24
31452 H 97.53108215942518 101.44701927956294 127.50030626171734 H 0.0 **** 0.06
31453 H 96.15080682357308 100.42059580696984 127.04226838726296 H 0.0 **** 0.06
31454 H 96.26028627019792 102.09117014352606 126.43346077531228 H 0.0 **** 0.06
31455 H 95.91186548498055 101.79094493659574 128.1530123501582 H 0.0 **** 0.06
31456 C 133.54126555926672 31.916376447354736 123.30469009761758 C 0.0 **** -0.24
31457 H 132.73119549413383 31.190835817495525 123.22149506974385 H 0.0 **** 0.06
31458 H 133.9317562835948 32.140081854897744 122.31242103057912 H 0.0 **** 0.06
31459 H 134.33660166497611 31.50268444629711 123.9241708795265 H 0.0 **** 0.06
31460 H 133.1631764158252 32.831286134184836 123.76245640700228 H 0.0 **** 0.06
31461 C 58.800576783622375 69.13470738742406 6.186121613185321 C 0.0 **** -0.24
31462 H 58.15243970171207 70.00510115129718 6.077447124822811 H 0.0 **** 0.06
31463 H 58.95380737212926 68.67260059953063 5.21090688632205 H 0.0 **** 0.06
31464 H 58.333972317002946 68.41641594574087 6.859836473469954 H 0.0 **** 0.06
31465 H 59.76101174462275 69.4467763671635 6.595534203084981 H 0.0 **** 0.06
31466 C 78.81563470179162 74.86884268734667 76.33365851888051 C 0.0 **** -0.24
31467 H 79.3773965723721 74.19576732078917 76.98195339791899 H 0.0 **** 0.06
31468 H 77.95780181930712 74.34029209759694 75.91769206654578 H 0.0 **** 0.06
31469 H 79.45837988530099 75.21373532898733 75.52408657780575 H 0.0 **** 0.06
31470 H 78.46900352159116 75.72499845478416 76.91306185330684 H 0.0 **** 0.06
31471 C 107.01312929129722 55.52639963289664 31.19439283946531 C 0.0 **** -0.24
31472 H 107.244128192823 56.58992914295743 31.130435266547806 H 0.0 **** 0.06
31473 H 107.71359525978569 55.04344274402797 31.876458950057497 H 0.0 **** 0.06
31474 H 107.09762933808072 55.0751359852575 30.205465665930603 H 0.0 **** 0.06
31475 H 105.99599148335922 55.3986043425013 31.566366170698416 H 0.0 **** 0.06
31476 C 127.72217153083852 40.58595392315044 84.7680201754772 C 0.0 **** -0.24
31477 H 126.63484531503713 40.603759301250875 84.69260970461778 H 0.0 **** 0.06
31478 H 128.0952967416919 39.626976257377606 84.40928426994896 H 0.0 **** 0.06
31479 H 128.0161482981002 40.72586401389148 85.80813885942291 H 0.0 **** 0.06
31480 H 128.13964257093423 41.389393302664786 84.1607515547326 H 0.0 **** 0.06
31481 C 2.6891230207909835 116.71537005617242 2.533909356144221 C 0.0 **** -0.24
31482 H 2.0804408654687627 116.77220020014471 1.6309495149778286 H 0.0 **** 0.06
31483 H 2.7816344751220647 117.71005804635101 2.971891745199116 H 0.0 **** 0.06
31484 H 3.6786159919208004 116.33564101672795 2.2814701987502133 H 0.0 **** 0.06
31485 H 2.2146082793239366 116.04546574861558 3.251165275686674 H 0.0 **** 0.06
31486 C 9.811734599645774 136.20545663361725 94.24558204531638 C 0.0 **** -0.24
31487 H 8.72801799535182 136.12473356289593 94.1561102108301 H 0.0 **** 0.06
31488 H 10.131972843080106 135.76121983547205 95.18875024856385 H 0.0 **** 0.06
31489 H 10.100014559470608 137.2559721590418 94.2222193141481 H 0.0 **** 0.06
31490 H 10.284680038969427 135.67994466443912 93.41620889354857 H 0.0 **** 0.06
31491 C 118.85511887979064 47.62330655058312 87.6245553762042 C 0.0 **** -0.24
31492 H 118.32284551520829 47.5283544145901 88.57049679843203 H 0.0 **** 0.06
31493 H 118.96181730479806 48.678610090202085 87.3720182884179 H 0.0 **** 0.06
31494 H 118.29337028673731 47.11643206675751 86.83949941014566 H 0.0 **** 0.06
31495 H 119.8424424124189 47.16982963078266 87.71620700782128 H 0.0 **** 0.06
31496 C 44.472592519888316 48.529650153736185 46.88043898212368 C 0.0 **** -0.24
31497 H 44.57176481434889 47.4996076148619 46.537712714693726 H 0.0 **** 0.06
31498 H 44.43493689465986 49.19623187115468 46.01852776009606 H 0.0 **** 0.06
31499 H 45.328132638020584 48.788381081733036 47.5032314137124 H 0.0 **** 0.06
31500 H 43.555867413726524 48.63269702203141 47.46084959040802 H 0.0 **** 0.06
31501 C 112.03891235525055 103.38187477790194 24.41542630921262 C 0.0 **** -0.24
31502 H 112.78460678048316 103.32939806905847 25.20905475306941 H 0.0 **** 0.06
31503 H 111.1535980485736 102.81855653597643 24.711472300003777 H 0.0 **** 0.06
31504 H 112.45196088754301 102.95629197957965 23.501243491708294 H 0.0 **** 0.06
31505 H 111.76653183614712 104.4227811932032 24.24209791706494 H 0.0 **** 0.06
31506 C 54.83179831860923 72.11501891526262 0.19042455979956685 C 0.0 **** -0.24
31507 H 55.04028346023682 72.60593317475028 1.1405588431578622 H 0.0 **** 0.06
31508 H 54.8468421120358 72.85426266290582 -0.6109832437178966 H 0.0 **** 0.06
31509 H 53.84956243197348 71.64444933689771 0.23273286428616302 H 0.0 **** 0.06
31510 H 55.59123251716392 71.35633746478067 0.00019512938519028467 H 0.0 **** 0.06
31511 C 110.77198290372806 34.49784465288411 115.4202413033357 C 0.0 **** -0.24
31512 H 111.48491029795244 35.21866933947514 115.02010213098757 H 0.0 **** 0.06
31513 H 110.21025846430035 34.049367054083035 114.60017630042915 H 0.0 **** 0.06
31514 H 110.08368565020223 35.00542631219233 116.09666783358458 H 0.0 **** 0.06
31515 H 111.30805832235646 33.71944219502943 115.96322364344917 H 0.0 **** 0.06
31516 C 63.81209089560082 122.37570211765886 17.297175779732612 C 0.0 **** -0.24
31517 H 64.52940029366846 122.38706617886253 18.11778356996829 H 0.0 **** 0.06
31518 H 63.721657837903535 123.37886404434659 16.88035078067177 H 0.0 **** 0.06
31519 H 62.8415858156751 122.0465420254289 17.66673433396975 H 0.0 **** 0.06
31520 H 64.15809898947788 121.69054169756521 16.523289704220403 H 0.0 **** 0.06
31521 C 33.25969806315052 134.81729400744018 52.22659429014098 C 0.0 **** -0.24
31522 H 32.493589225767096 135.5706085884675 52.41064445008739 H 0.0 **** 0.06
31523 H 33.04296206275876 133.927316272529 52.81801734719909 H 0.0 **** 0.06
31524 H 34.23464728582542 135.21356418521745 52.50917346317223 H 0.0 **** 0.06
31525 H 33.26476005222514 134.55743978022926 51.16758802842314 H 0.0 **** 0.06
31526 C 89.29097470371843 62.41164030485746 5.8071725275208905 C 0.0 **** -0.24
31527 H 89.81837098930554 63.20286323564315 6.339867080014443 H 0.0 **** 0.06
31528 H 88.23512087614215 62.67042657064842 5.726064957217062 H 0.0 **** 0.06
31529 H 89.3937490198746 61.47471954041765 6.354944376430296 H 0.0 **** 0.06
31530 H 89.71649244506105 62.29882537648284 4.810026848541952 H 0.0 **** 0.06
31531 C 31.88517664291348 118.2815163947256 107.71749129729113 C 0.0 **** -0.24
31532 H 31.239778923171713 117.42504430717892 107.52040135164998 H 0.0 **** 0.06
31533 H 31.959445190413163 118.4393095332594 108.79357938987448 H 0.0 **** 0.06
31534 H 31.463342765989864 119.16925802154672 107.24732537021282 H 0.0 **** 0.06
31535 H 32.87740127490508 118.08922138603637 107.30874444114818 H 0.0 **** 0.06
31536 C 122.60108681395207 110.01970097211313 66.42793000499935 C 0.0 **** -0.24
31537 H 121.82686569248807 110.78028115920239 66.52345197107161 H 0.0 **** 0.06
31538 H 123.47189654414916 110.44892851805474 65.93066220079318 H 0.0 **** 0.06
31539 H 122.22019030334712 109.18618814196738 65.83803318502889 H 0.0 **** 0.06
31540 H 122.88596730726442 109.66519824059947 67.41746064236757 H 0.0 **** 0.06
31541 C 67.80428275956258 126.71604690887118 3.60312708332242 C 0.0 **** -0.24
31542 H 67.7284943350639 126.6358703454008 2.5189108334701587 H 0.0 **** 0.06
31543 H 68.81567931234979 126.45359349154613 3.916386342684291 H 0.0 **** 0.06
31544 H 67.09160192887524 126.03543483269266 4.068886995827313 H 0.0 **** 0.06
31545 H 67.58338914305695 127.73931822238802 3.907394905159663 H 0.0 **** 0.06
31546 C 53.37558717582864 72.96137326708947 119.65161489291586 C 0.0 **** -0.24
31547 H 52.97553441624167 72.74030376918019 120.64083584865529 H 0.0 **** 0.06
31548 H 53.593841397521814 72.02783513076368 119.13136516181567 H 0.0 **** 0.06
31549 H 54.290734113764216 73.54486255895054 119.75167179548811 H 0.0 **** 0.06
31550 H 52.64097524556763 73.53198322748511 119.08220580397091 H 0.0 **** 0.06
31551 C 26.140207990991726 24.961059401604352 42.37431049267501 C 0.0 **** -0.24
31552 H 25.322825094621955 25.553645368160666 42.78701281158798 H 0.0 **** 0.06
31553 H 26.405660880708865 24.17054492757073 43.07606591967724 H 0.0 **** 0.06
31554 H 27.00447135801788 25.60348681997384 42.20628699185351 H 0.0 **** 0.06
31555 H 25.826927325035015 24.518681275024697 41.42865417052725 H 0.0 **** 0.06
31556 C 25.955115560277704 108.1890986337769 32.78130981030516 C 0.0 **** -0.24
31557 H 25.74816329671495 109.25901202389295 32.745530017825075 H 0.0 **** 0.06
31558 H 26.055729063138983 107.8723296886842 33.819070567110536 H 0.0 **** 0.06
31559 H 26.882006394446535 107.9812936426664 32.245191722026675 H 0.0 **** 0.06
31560 H 25.134230848949073 107.64571020591109 32.31243305769787 H 0.0 **** 0.06
31561 C 111.36734891951815 40.47687382044886 111.85608357925844 C 0.0 **** -0.24
31562 H 110.48500067139045 39.92402209559965 111.53266800656905 H 0.0 **** 0.06
31563 H 112.2454296434635 39.83425070281133 111.78368962184081 H 0.0 **** 0.06
31564 H 111.23511413247033 40.798004687067476 112.88947750633821 H 0.0 **** 0.06
31565 H 111.50219520797464 41.35018766334599 111.21805578627675 H 0.0 **** 0.06
31566 C 133.42458325253776 59.51386666743372 22.233660232772536 C 0.0 **** -0.24
31567 H 134.19218224379324 59.65597615987531 22.99421314392052 H 0.0 **** 0.06
31568 H 132.6952752201966 58.783618713924824 22.586312820632315 H 0.0 **** 0.06
31569 H 133.88625657830192 59.151474157397615 21.314770955206114 H 0.0 **** 0.06
31570 H 132.9245260652289 60.462184781083295 22.03903601340457 H 0.0 **** 0.06
31571 C 94.91320692258961 36.481070670191926 130.93593912347245 C 0.0 **** -0.24
31572 H 94.15540164048788 36.51428670891063 131.71880559866065 H 0.0 **** 0.06
31573 H 95.89248569737984 36.31386465226858 131.38494058368227 H 0.0 **** 0.06
31574 H 94.91691594884915 37.426070650614506 130.39391211021888 H 0.0 **** 0.06
31575 H 94.68598073266038 35.66745571688835 130.24629350458792 H 0.0 **** 0.06
31576 C 85.83670302159038 0.41924922447091717 131.5015063968317 C 0.0 **** -0.24
31577 H 85.11502466193016 -0.3900033542582264 131.61632672390675 H 0.0 **** 0.06
31578 H 85.57321101693027 1.0201595428243309 130.63117610912752 H 0.0 **** 0.06
31579 H 86.83364814808198 -0.00018662370396782535 131.3649960950214 H 0.0 **** 0.06
31580 H 85.82494028606295 1.045729544929344 132.39296479263118 H 0.0 **** 0.06
31581 C 127.80273848570552 133.78405914457673 45.28817224993578 C 0.0 **** -0.24
31582 H 128.00142274677154 134.57514788031565 46.01203638969805 H 0.0 **** 0.06
31583 H 126.96382628713906 134.0751044152928 44.654816816016144 H 0.0 **** 0.06
31584 H 127.55664780159735 132.86276174428843 45.81572842419119 H 0.0 **** 0.06
31585 H 128.68618114733485 133.6249698650942 44.67174332598219 H 0.0 **** 0.06
31586 C 36.8381822714361 109.33956897361026 82.38995244520282 C 0.0 **** -0.24
31587 H 37.021978978429615 110.19363166679406 81.73762524373194 H 0.0 **** 0.06
31588 H 36.25348334301407 108.59193142264232 81.85398106796015 H 0.0 **** 0.06
31589 H 36.28753235656433 109.66874899134345 83.27173546613483 H 0.0 **** 0.06
31590 H 37.79018004607906 108.90600923662888 82.69725405837983 H 0.0 **** 0.06
31591 C 62.829516745424385 74.88861924068976 73.75297415498491 C 0.0 **** -0.24
31592 H 63.612049607653816 74.53048988393957 74.4210487700154 H 0.0 **** 0.06
31593 H 63.27140915109278 75.5144520386643 72.97804935726136 H 0.0 **** 0.06
31594 H 62.1050889940838 75.47169523698543 74.32182201642583 H 0.0 **** 0.06
31595 H 62.328267536146015 74.03718468207825 73.29091186679427 H 0.0 **** 0.06
31596 C 40.386605921199305 100.40112318773129 88.99127065771957 C 0.0 **** -0.24
31597 H 41.127858261002075 99.74667345583123 89.449258159339 H 0.0 **** 0.06
31598 H 39.64964742916197 99.79822546448484 88.46016369638171 H 0.0 **** 0.06
31599 H 40.8793984304196 101.0748954449775 88.29064912602068 H 0.0 **** 0.06
31600 H 39.88795564727417 100.98410021036831 89.76649373614285 H 0.0 **** 0.06
31601 C 84.08728434292232 2.688530613814379 22.980036146064947 C 0.0 **** -0.24
31602 H 85.12288322415884 2.560790654466018 22.667534234438293 H 0.0 **** 0.06
31603 H 83.43457387262026 2.6360211228772528 22.108235772921688 H 0.0 **** 0.06
31604 H 83.97115160129499 3.6592361705473877 23.463410773825927 H 0.0 **** 0.06
31605 H 83.81984852535135 1.8989122383648862 23.681877968161643 H 0.0 **** 0.06
31606 C 74.13796485223281 72.52987690741324 18.12394100759073 C 0.0 **** -0.24
31607 H 73.8454907691349 71.74536128131064 18.82236726535237 H 0.0 **** 0.06
31608 H 73.52831190892833 73.41702396097466 18.298876743933732 H 0.0 **** 0.06
31609 H 73.98705555400731 72.1801859628732 17.10226066360994 H 0.0 **** 0.06
31610 H 75.18927318917582 72.77480266029855 18.27382829735862 H 0.0 **** 0.06
31611 C 35.680190158188665 14.29208858333135 2.790098113984101 C 0.0 **** -0.24
31612 H 36.597845367356946 13.954477793252352 3.2727045520663296 H 0.0 **** 0.06
31613 H 35.463279912574144 15.315360162622824 3.0973525728497577 H 0.0 **** 0.06
31614 H 34.85613222404711 13.641698411878053 3.081992221215131 H 0.0 **** 0.06
31615 H 35.806160218283914 14.256292955082444 1.707527873577618 H 0.0 **** 0.06
31616 C 135.9134197300528 102.05638633030782 52.87157994586278 C 0.0 **** -0.24
31617 H 135.52144595464074 101.89741018183734 53.87584941982499 H 0.0 **** 0.06
31618 H 135.2102396047261 102.66265954200298 52.299478011876204 H 0.0 **** 0.06
31619 H 136.04837930773974 101.0930462591802 52.37841471588706 H 0.0 **** 0.06
31620 H 136.87143375097708 102.57149873391843 52.93319451215683 H 0.0 **** 0.06
31621 C 83.41432246071486 120.25485601105646 107.88451303462 C 0.0 **** -0.24
31622 H 83.28944767584036 119.3304751240418 108.4482162484498 H 0.0 **** 0.06
31623 H 82.50145505889569 120.46606029981965 107.32662149788672 H 0.0 **** 0.06
31624 H 84.24816784826498 120.14598211744656 107.1906568324369 H 0.0 **** 0.06
31625 H 83.61920514198647 121.07468424834704 108.57225772786944 H 0.0 **** 0.06
31626 C 84.07174572778251 81.26405210141655 79.63649482145343 C 0.0 **** -0.24
31627 H 83.27353032773814 80.52178424378968 79.64255011145013 H 0.0 **** 0.06
31628 H 84.85056803106843 80.96485042485388 80.33817014086071 H 0.0 **** 0.06
31629 H 83.6696427877238 82.2332977769542 79.93140515969412 H 0.0 **** 0.06
31630 H 84.49327158671878 81.33504984040799 78.63314971905817 H 0.0 **** 0.06
31631 C 88.6211082823927 86.1021839296402 58.75018243471001 C 0.0 **** -0.24
31632 H 87.86936639430942 85.67085624844424 58.08863526367746 H 0.0 **** 0.06
31633 H 88.72075565985796 85.48083696563936 59.640078722907646 H 0.0 **** 0.06
31634 H 88.31492284581196 87.10674322399501 59.03993423560941 H 0.0 **** 0.06
31635 H 89.57796704005091 86.14946480816207 58.2305701900862 H 0.0 **** 0.06
31636 C 80.09646240008009 84.82984136689588 46.23023989624029 C 0.0 **** -0.24
31637 H 79.97287500429901 83.74762393486019 46.28010658619981 H 0.0 **** 0.06
31638 H 80.99188217186138 85.06665531329642 45.65567689423696 H 0.0 **** 0.06
31639 H 80.19376334430683 85.23044195826024 47.2400080987418 H 0.0 **** 0.06
31640 H 79.22575108159452 85.27208941955729 45.746576272681224 H 0.0 **** 0.06
31641 C 55.18304668007866 25.710865083798026 80.13687330324757 C 0.0 **** -0.24
31642 H 55.75919365793162 26.576497597568213 80.46146536167109 H 0.0 **** 0.06
31643 H 55.857196835664965 24.872629587831952 79.95579054162187 H 0.0 **** 0.06
31644 H 54.6506421509404 25.953279284286218 79.21733547414432 H 0.0 **** 0.06
31645 H 54.466584925256555 25.440641474462325 80.9115666244155 H 0.0 **** 0.06
31646 C 74.2912885400926 86.71680922310406 55.79258994086072 C 0.0 **** -0.24
31647 H 75.1428021486243 86.68114782903086 56.47237072712315 H 0.0 **** 0.06
31648 H 73.92758264117002 87.74228027585707 55.71954713050246 H 0.0 **** 0.06
31649 H 73.49630999783395 86.0745382212524 56.172182040510336 H 0.0 **** 0.06
31650 H 74.59970984548764 86.36861007651527 54.80627266692869 H 0.0 **** 0.06
31651 C 116.68516148297081 35.454552889168 71.8924430194078 C 0.0 **** -0.24
31652 H 117.57808501628614 35.189043413288076 71.32645154764313 H 0.0 **** 0.06
31653 H 116.83151438999195 35.1964151805567 72.9424063149106 H 0.0 **** 0.06
31654 H 115.82945801946602 34.90686474566368 71.4988133749141 H 0.0 **** 0.06
31655 H 116.50418108635554 36.52568853478223 71.80359719302531 H 0.0 **** 0.06
31656 C 52.92910908136167 93.96496129175421 89.91798498877081 C 0.0 **** -0.24
31657 H 53.786996995973084 94.63391621148293 89.85940472210491 H 0.0 **** 0.06
31658 H 52.61776825621472 93.86398789786563 90.9584403694115 H 0.0 **** 0.06
31659 H 53.20495958132601 92.98604762619134 89.5240641014405 H 0.0 **** 0.06
31660 H 52.107566448056716 94.37441883955337 89.3303386057957 H 0.0 **** 0.06
31661 C 33.65945965657221 3.4751360465406833 0.05795232855183485 C 0.0 **** -0.24
31662 H 33.2086681368753 3.746489787965345 -0.8977747845050601 H 0.0 **** 0.06
31663 H 33.3761322406682 4.208756838379372 0.8135714341499067 H 0.0 **** 0.06
31664 H 34.74400848857067 3.4582253669299803 -0.044286949559875666 H 0.0 **** 0.06
31665 H 33.30650581051344 2.4884663608623327 0.35791495007492813 H 0.0 **** 0.06
31666 C 36.11529492495448 127.53056199279006 81.75496982473139 C 0.0 **** -0.24
31667 H 36.264981185316515 128.6075814996168 81.67121346979663 H 0.0 **** 0.06
31668 H 35.95575937519614 127.10871130185127 80.76207329533165 H 0.0 **** 0.06
31669 H 35.24405115461167 127.33225305271625 82.37871407399773 H 0.0 **** 0.06
31670 H 36.997163075356156 127.07669047502556 82.2063069933537 H 0.0 **** 0.06
31671 C 79.28555060384554 19.073937394182735 41.577163322581725 C 0.0 **** -0.24
31672 H 78.60054443378056 18.897777532540488 40.746830023903954 H 0.0 **** 0.06
31673 H 78.94262550260581 18.524476778851238 42.453699377688054 H 0.0 **** 0.06
31674 H 79.3146858959355 20.140513105506415 41.803588857159696 H 0.0 **** 0.06
31675 H 80.28392375025976 18.73324392779392 41.30157646653868 H 0.0 **** 0.06
31676 C 83.82974979170058 89.34310023140218 112.4620925258964 C 0.0 **** -0.24
31677 H 83.85224901053977 90.42166276949868 112.30852929733183 H 0.0 **** 0.06
31678 H 83.36382902892194 88.8638717142418 111.60054857774159 H 0.0 **** 0.06
31679 H 83.25537279162069 89.11568852158477 113.35961578174675 H 0.0 **** 0.06
31680 H 84.84815278830713 88.9713059260251 112.57840430514867 H 0.0 **** 0.06
31681 C 61.230294232351824 40.466508336126594 113.53470727918338 C 0.0 **** -0.24
31682 H 62.189356978181706 40.42338460229455 114.0519665050027 H 0.0 **** 0.06
31683 H 60.53539996476151 39.767487725940526 114.00112045344645 H 0.0 **** 0.06
31684 H 61.371277625603696 40.19533205223928 112.48780793904487 H 0.0 **** 0.06
31685 H 60.82868154742566 41.47728474768513 113.59797896541184 H 0.0 **** 0.06
31686 C 119.76140651907957 40.65220405482131 26.16785183407933 C 0.0 **** -0.24
31687 H 118.86019732098504 40.90726640502677 25.61131774894858 H 0.0 **** 0.06
31688 H 120.63022148990734 41.08781753396631 25.672600799636143 H 0.0 **** 0.06
31689 H 119.8702865818855 39.56832728409751 26.20580362989267 H 0.0 **** 0.06
31690 H 119.68632411941857 41.04532465058535 27.181530222329627 H 0.0 **** 0.06
31691 C 73.75302243524669 75.17786722713464 48.94359910235973 C 0.0 **** -0.24
31692 H 73.7223154662212 75.4234622825494 50.005004397495796 H 0.0 **** 0.06
31693 H 72.86339500090293 74.60585782822477 48.67723955981293 H 0.0 **** 0.06
31694 H 74.64221306538653 74.58365548636249 48.73459082219263 H 0.0 **** 0.06
31695 H 73.7831863415953 76.09651052593819 48.3578912576548 H 0.0 **** 0.06
31696 C 87.06759617513757 101.50091534174106 77.0370254433266 C 0.0 **** -0.24
31697 H 88.00982187768598 101.00972268313456 77.27998955365814 H 0.0 **** 0.06
31698 H 87.21966783878645 102.57936007312202 76.99297737155274 H 0.0 **** 0.06
31699 H 86.32868656173787 101.26935383347518 77.80493296901278 H 0.0 **** 0.06
31700 H 86.71034780876785 101.14401567409794 76.07047831800388 H 0.0 **** 0.06
31701 C 93.15350802781953 17.54505250685834 61.512031328348954 C 0.0 **** -0.24
31702 H 93.79777264729907 18.329601655902678 61.116457382086736 H 0.0 **** 0.06
31703 H 92.32702480952288 17.37085273492626 60.82094224104624 H 0.0 **** 0.06
31704 H 92.75899658988084 17.85376388329766 62.47988775057095 H 0.0 **** 0.06
31705 H 93.7281464369024 16.62627586138929 61.62959509844903 H 0.0 **** 0.06
31706 C 31.51093751028754 127.08075532689767 98.38004119079585 C 0.0 **** -0.24
31707 H 32.00032578643384 127.32149059199237 99.32373749003767 H 0.0 **** 0.06
31708 H 32.259122559895616 127.01245903898972 97.58944782221926 H 0.0 **** 0.06
31709 H 30.791949409139818 127.86234650624402 98.13387983003537 H 0.0 **** 0.06
31710 H 30.992352285680752 126.1267251703646 98.47309962089105 H 0.0 **** 0.06
31711 C 31.138195869426795 75.36869012237604 19.16614730346174 C 0.0 **** -0.24
31712 H 31.14990952827003 75.21755874159466 18.087043913057528 H 0.0 **** 0.06
31713 H 30.946087220681875 76.41905503726242 19.38324598493989 H 0.0 **** 0.06
31714 H 32.10255348937119 75.08016640332487 19.58391217792348 H 0.0 **** 0.06
31715 H 30.35182452672251 74.7565583430131 19.609967028903498 H 0.0 **** 0.06
31716 C 116.64094636039275 64.27603107758625 110.88928447236475 C 0.0 **** -0.24
31717 H 117.24050392029562 63.67834291229818 111.57545910395424 H 0.0 **** 0.06
31718 H 116.97225586258645 65.31443180582744 110.92744292982005 H 0.0 **** 0.06
31719 H 115.59125566382349 64.21875096128161 111.17915089056433 H 0.0 **** 0.06
31720 H 116.7589923662654 63.8937298927726 109.87542501381469 H 0.0 **** 0.06
31721 C 46.01544500693784 4.331866169200158 63.91978215593397 C 0.0 **** -0.24
31722 H 44.979352740929656 4.649684665325921 64.04194329013063 H 0.0 **** 0.06
31723 H 46.604108998664884 4.67870318196022 64.76984504461387 H 0.0 **** 0.06
31724 H 46.41912431573549 4.755416102598527 63.000198812252705 H 0.0 **** 0.06
31725 H 46.0574475740069 3.2436295799645976 63.868537669482066 H 0.0 **** 0.06
31726 C 98.89534599085715 83.11290413022284 67.98996172928176 C 0.0 **** -0.24
31727 H 99.38386204842395 83.31287141383405 68.94379097174918 H 0.0 **** 0.06
31728 H 99.3733489504716 82.25895660457793 67.51048823368369 H 0.0 **** 0.06
31729 H 98.98327338535341 83.98833268238612 67.346743513699 H 0.0 **** 0.06
31730 H 97.84146790486753 82.89189082946795 68.16116685691962 H 0.0 **** 0.06
31731 C 28.570552252439143 65.18275587528505 111.72939096331726 C 0.0 **** -0.24
31732 H 28.072951418866232 64.9863346585528 110.77891884557368 H 0.0 **** 0.06
31733 H 28.333648234074545 64.38484247501893 112.43363366543281 H 0.0 **** 0.06
31734 H 28.225750982355926 66.13543900189447 112.13005036499521 H 0.0 **** 0.06
31735 H 29.64822006413769 65.22128190373324 111.57282832285637 H 0.0 **** 0.06
31736 C 57.00085772464013 112.79811923633608 96.51768327210718 C 0.0 **** -0.24
31737 H 57.23626533415444 113.28966985313488 95.57318692105565 H 0.0 **** 0.06
31738 H 56.34061810608034 111.95097136275186 96.33085124645362 H 0.0 **** 0.06
31739 H 56.50441718580805 113.50652466760266 97.18165363791182 H 0.0 **** 0.06
31740 H 57.920415974540106 112.44662934629946 96.98389081064951 H 0.0 **** 0.06
31741 C 38.71356379728972 103.10025951388803 103.08386210058889 C 0.0 **** -0.24
31742 H 38.6912125730795 102.66921131812296 104.0849689663974 H 0.0 **** 0.06
31743 H 39.46075787886855 102.58228962596678 102.48285274319063 H 0.0 **** 0.06
31744 H 38.96832332208251 104.15823305043637 103.14969266193434 H 0.0 **** 0.06
31745 H 37.733677542868946 102.99078918203486 102.62009147095924 H 0.0 **** 0.06
31746 C 100.10286878263946 44.22233145568483 104.0800494945112 C 0.0 **** -0.24
31747 H 100.80602980507695 45.01946616974251 104.31854021285743 H 0.0 **** 0.06
31748 H 99.18404753786501 44.36672115205019 104.64887215800148 H 0.0 **** 0.06
31749 H 100.54287996669169 43.259728692178335 104.33934683187816 H 0.0 **** 0.06
31750 H 99.87767339499919 44.24340602728128 103.01397447756061 H 0.0 **** 0.06
31751 C 62.02121684976203 4.710872547463733 130.31071083305463 C 0.0 **** -0.24
31752 H 62.555716376380445 3.764828307918716 130.2175460681403 H 0.0 **** 0.06
31753 H 61.20872675655555 4.5987828535909046 131.02925022136895 H 0.0 **** 0.06
31754 H 61.61132070477548 4.99295888414758 129.33990261235675 H 0.0 **** 0.06
31755 H 62.707896157856126 5.483556826406343 130.65408747674127 H 0.0 **** 0.06
31756 C 20.68587688778082 94.83212443820571 2.175880713578124 C 0.0 **** -0.24
31757 H 19.97925845211666 94.29973079617298 2.8122394486757685 H 0.0 **** 0.06
31758 H 21.476300492792966 95.26292467185021 2.791297475806573 H 0.0 **** 0.06
31759 H 20.166192879802985 95.6273971709694 1.6412632002891883 H 0.0 **** 0.06
31760 H 21.12209974017071 94.1362961854453 1.4582089269900962 H 0.0 **** 0.06
31761 C 85.50602993243086 110.8826367375822 115.08988798888439 C 0.0 **** -0.24
31762 H 86.41664512500266 111.0995883350943 114.52952458995159 H 0.0 **** 0.06
31763 H 84.64193128358147 110.9877020441667 114.43347661600905 H 0.0 **** 0.06
31764 H 85.41808404311718 111.58043143908517 115.9220785288507 H 0.0 **** 0.06
31765 H 85.55052641068512 109.86377275083865 115.47317019465544 H 0.0 **** 0.06
31766 C 16.237460595963483 80.00026336016062 56.98241646490618 C 0.0 **** -0.24
31767 H 16.167684614690586 81.03848534057589 57.30509810027388 H 0.0 **** 0.06
31768 H 15.425291310635117 79.42607186173896 57.42895567394828 H 0.0 **** 0.06
31769 H 17.194105748322272 79.5847678893351 57.299267585484415 H 0.0 **** 0.06
31770 H 16.161872241141793 79.95213104759505 55.896124266170716 H 0.0 **** 0.06
31771 C 50.79073946600309 11.417649706248994 40.09973612338619 C 0.0 **** -0.24
31772 H 51.70684673469873 11.249531808569884 40.66721209065925 H 0.0 **** 0.06
31773 H 49.92845281276031 11.197321835717474 40.72862911520789 H 0.0 **** 0.06
31774 H 50.7799989449033 10.765969597735989 39.22686575817718 H 0.0 **** 0.06
31775 H 50.7501855594204 12.458601481536931 39.77762917745497 H 0.0 **** 0.06
31776 C 47.55974177606275 1.6771180857128165 124.1683464809942 C 0.0 **** -0.24
31777 H 47.84986714922803 0.9011756764939243 124.87681646009315 H 0.0 **** 0.06
31778 H 48.43982544715335 2.250279715361007 123.87651682904487 H 0.0 **** 0.06
31779 H 46.831203800482726 2.3404831247434608 124.63545604751587 H 0.0 **** 0.06
31780 H 47.11634164225586 1.2159650363096262 123.2862358218551 H 0.0 **** 0.06
31781 C 115.03113065413788 41.11914787626021 106.16381150487655 C 0.0 **** -0.24
31782 H 115.73506359096893 41.24652631953841 106.98596550206423 H 0.0 **** 0.06
31783 H 115.39839105651285 41.654039200665075 105.28606764493071 H 0.0 **** 0.06
31784 H 114.05840969473695 41.518226679989226 106.45165888604072 H 0.0 **** 0.06
31785 H 114.93439144654889 40.059178669150114 105.92889052549816 H 0.0 **** 0.06
31786 C 32.04322283544585 43.267797049865294 113.07870597930591 C 0.0 **** -0.24
31787 H 31.26484391481018 43.46818341020537 113.81397229623138 H 0.0 **** 0.06
31788 H 31.66282527367555 42.57625947296907 112.326294136956 H 0.0 **** 0.06
31789 H 32.906622085508424 42.82429070444138 113.5757803913292 H 0.0 **** 0.06
31790 H 32.339423738996224 44.199590931330704 112.59842878713522 H 0.0 **** 0.06
31791 C 132.12533830568847 1.601372158540613 4.148400289421318 C 0.0 **** -0.24
31792 H 132.5978372290559 0.929467404144134 3.4318831364199696 H 0.0 **** 0.06
31793 H 131.95668077319326 2.5718879657738114 3.6798932486456692 H 0.0 **** 0.06
31794 H 132.7751407483717 1.7245823389463908 5.01480498572991 H 0.0 **** 0.06
31795 H 131.17091292829696 1.1807290360993932 4.467056350067708 H 0.0 **** 0.06
31796 C 37.59225342818365 136.48410519015044 132.44208372573746 C 0.0 **** -0.24
31797 H 37.54253165569045 135.6463639675942 133.13780957775464 H 0.0 **** 0.06
31798 H 38.24926078653016 137.2537834626387 132.84546157386416 H 0.0 **** 0.06
31799 H 36.593092587604104 136.8967864378635 132.2988429750608 H 0.0 **** 0.06
31800 H 37.982426753602056 136.13804934096743 131.4842114730763 H 0.0 **** 0.06
31801 C 56.53450926894877 81.0927184840557 123.36308586810057 C 0.0 **** -0.24
31802 H 57.24919522994786 80.9177372039564 124.16663209780803 H 0.0 **** 0.06
31803 H 56.05396720656343 80.15269330148212 123.09351397760125 H 0.0 **** 0.06
31804 H 57.05557172376784 81.49805001633193 122.49517321471417 H 0.0 **** 0.06
31805 H 55.77957249336896 81.80512932693698 123.69822523505667 H 0.0 **** 0.06
31806 C 20.650536889011562 81.39207969251109 1.403672724462524 C 0.0 **** -0.24
31807 H 21.054751969342846 80.94544764149914 2.3127459318852175 H 0.0 **** 0.06
31808 H 21.333102504005154 81.20600029364552 0.5735078166239873 H 0.0 **** 0.06
31809 H 20.535113121102 82.46625310435728 1.54643781638174 H 0.0 **** 0.06
31810 H 19.67982569839876 80.94848145587247 1.1830091015443145 H 0.0 **** 0.06
31811 C 102.27517522948375 127.43726041573225 62.75501562604691 C 0.0 **** -0.24
31812 H 102.06877930582516 127.87577570880823 61.77847215942819 H 0.0 **** 0.06
31813 H 101.40299987743754 126.87735564761351 63.093016932051725 H 0.0 **** 0.06
31814 H 102.49871088949072 128.22841614800822 63.46944714458289 H 0.0 **** 0.06
31815 H 103.13063606216764 126.76578909662302 62.67741974165486 H 0.0 **** 0.06
31816 C 46.879442617275785 50.05758607330088 87.10113639319874 C 0.0 **** -0.24
31817 H 47.460101088065215 50.783989247767266 86.53328677216045 H 0.0 **** 0.06
31818 H 47.133643565077136 50.134950549661 88.15842003252496 H 0.0 **** 0.06
31819 H 47.10674530364089 49.0533468752631 86.7449382257319 H 0.0 **** 0.06
31820 H 45.81630348163502 50.258239445049384 86.96778919955221 H 0.0 **** 0.06
31821 C 33.88019098632003 95.66654047696659 109.54537902297096 C 0.0 **** -0.24
31822 H 33.95068729477617 94.920425691888 110.33694523367635 H 0.0 **** 0.06
31823 H 34.61865831464331 96.44928632655444 109.71810710571282 H 0.0 **** 0.06
31824 H 32.88079872571092 96.10251924452405 109.54669082373863 H 0.0 **** 0.06
31825 H 34.06953181793506 95.19295885047245 108.58174082147892 H 0.0 **** 0.06
31826 C 44.23000192423822 48.9394599608238 33.997002078703474 C 0.0 **** -0.24
31827 H 44.180588831746604 50.02446225760511 34.09213069053666 H 0.0 **** 0.06
31828 H 43.93394488307544 48.64985653004817 32.988325132229704 H 0.0 **** 0.06
31829 H 43.556312203299086 48.48055050649958 34.719974616294195 H 0.0 **** 0.06
31830 H 45.250619547749466 48.6052788420302 34.18683823766784 H 0.0 **** 0.06
31831 C 129.72159985082266 55.079627790511665 19.944563623716988 C 0.0 **** -0.24
31832 H 129.15967704009032 54.177677045188915 19.70186283457005 H 0.0 **** 0.06
31833 H 130.6219483676517 55.122495665324834 19.33086662915926 H 0.0 **** 0.06
31834 H 130.00116705632126 55.060520965706246 20.998670468909324 H 0.0 **** 0.06
31835 H 129.10492558855896 55.95592211756508 19.747672499373977 H 0.0 **** 0.06
31836 C 116.16500884016548 69.41576750168859 72.71681429123973 C 0.0 **** -0.24
31837 H 116.62900660671838 69.26261516346037 73.6905316213176 H 0.0 **** 0.06
31838 H 116.08970611439344 68.46051564566042 72.19607682337264 H 0.0 **** 0.06
31839 H 116.77386179628496 70.10318811528865 72.12897156365437 H 0.0 **** 0.06
31840 H 115.16834300751597 69.83697617019328 72.85126343201769 H 0.0 **** 0.06
31841 C 34.55286459514603 125.33205568833608 107.25022806191174 C 0.0 **** -0.24
31842 H 34.66567506385888 124.24819292193956 107.2215335825424 H 0.0 **** 0.06
31843 H 33.49281243955601 125.58456883837295 107.2943376907541 H 0.0 **** 0.06
31844 H 34.99298174751709 125.76758183775476 106.35338754711651 H 0.0 **** 0.06
31845 H 35.05783334989826 125.72674468976905 108.1319100977266 H 0.0 **** 0.06
31846 C 111.36356168345756 40.40117673943293 80.12802594903314 C 0.0 **** -0.24
31847 H 112.25885296997333 40.28485622573864 80.73865112432951 H 0.0 **** 0.06
31848 H 111.09657071909541 39.44043221631659 79.68808181951437 H 0.0 **** 0.06
31849 H 111.55719896758401 41.123176507076316 79.33355374316706 H 0.0 **** 0.06
31850 H 110.54319434415129 40.757485106216656 80.75040670207929 H 0.0 **** 0.06
31851 C 50.21464227182349 49.901969188759765 2.252646271900545 C 0.0 **** -0.24
31852 H 49.578830162499685 49.53179841111792 3.056410903276884 H 0.0 **** 0.06
31853 H 50.659081916573825 49.05817765058133 1.7233803887565387 H 0.0 **** 0.06
31854 H 51.005408431453475 50.52478162422854 2.6711945082390116 H 0.0 **** 0.06
31855 H 49.61677961465375 50.49154612170892 1.5585120718324958 H 0.0 **** 0.06
31856 C 69.74580366590294 44.57438523329694 116.12064904408186 C 0.0 **** -0.24
31857 H 69.6304469985858 43.8504868543132 116.9282350173817 H 0.0 **** 0.06
31858 H 69.1359604320262 44.26983044067066 115.27073515439537 H 0.0 **** 0.06
31859 H 70.79229452493584 44.620279722892604 115.82092651841961 H 0.0 **** 0.06
31860 H 69.42318659421676 45.55763959031168 116.46582326821624 H 0.0 **** 0.06
31861 C 107.7429820116026 132.46506650141464 12.976157749220064 C 0.0 **** -0.24
31862 H 108.68785743344293 132.41116949801446 12.435771226458513 H 0.0 **** 0.06
31863 H 107.93979737901236 132.52615843716126 14.046383677135452 H 0.0 **** 0.06
31864 H 107.15159780304663 131.57378801497057 12.76552190986142 H 0.0 **** 0.06
31865 H 107.19154800579366 133.35039887581425 12.657365886598242 H 0.0 **** 0.06
31866 C 46.50173196528789 37.56037464719521 66.87078941887358 C 0.0 **** -0.24
31867 H 45.42292767680192 37.43302736802099 66.9609783462111 H 0.0 **** 0.06
31868 H 46.83188953792853 38.347183074978155 67.54875513984706 H 0.0 **** 0.06
31869 H 46.74940042670178 37.83589507588329 65.84584411654629 H 0.0 **** 0.06
31870 H 47.000748648016895 36.62622068164707 67.12689631344284 H 0.0 **** 0.06
31871 C 112.30090484697033 123.16428775558575 3.354758294854925 C 0.0 **** -0.24
31872 H 111.68793652226714 124.06469166692703 3.3035847047457665 H 0.0 **** 0.06
31873 H 113.31754513653112 123.43336788135495 3.6431460841019856 H 0.0 **** 0.06
31874 H 112.31580172858531 122.67925137792335 2.379125770887022 H 0.0 **** 0.06
31875 H 111.88153998952527 122.48136734238118 4.094602844483344 H 0.0 **** 0.06
31876 C 121.8162135739507 63.48865974380878 117.15261580625852 C 0.0 **** -0.24
31877 H 121.77439068162371 63.015437341272616 116.17168489302702 H 0.0 **** 0.06
31878 H 122.69920466085408 63.136780763344206 117.68759343114084 H 0.0 **** 0.06
31879 H 120.92113451691746 63.232450954832714 117.71813462230625 H 0.0 **** 0.06
31880 H 121.87212987445757 64.57047207179978 117.03087623286541 H 0.0 **** 0.06
31881 C 87.4668390875512 116.71941734587614 109.69378448248852 C 0.0 **** -0.24
31882 H 86.90254581268191 115.9071509744916 109.23409375019219 H 0.0 **** 0.06
31883 H 87.24321642896713 116.75742405752086 110.76003936280995 H 0.0 **** 0.06
31884 H 87.18789075800237 117.66448934192101 109.22834727885026 H 0.0 **** 0.06
31885 H 88.53361419488037 116.54457792565722 109.55177695062474 H 0.0 **** 0.06
31886 C 85.24565755692714 42.03238978787123 28.350740605693773 C 0.0 **** -0.24
31887 H 85.60560127543349 41.69515179147984 29.3227879903666 H 0.0 **** 0.06
31888 H 86.07880617859593 42.436476798903456 27.77530933782306 H 0.0 **** 0.06
31889 H 84.49226748945398 42.806343935873954 28.492407039728214 H 0.0 **** 0.06
31890 H 84.80720447698826 41.191474003910976 27.814309288395158 H 0.0 **** 0.06
31891 C 106.50336129778508 42.56026945524391 99.97138789589161 C 0.0 **** -0.24
31892 H 106.44374989898665 41.47557250725495 100.06828030631422 H 0.0 **** 0.06
31893 H 106.5358727799082 42.829469236542366 98.91570018710857 H 0.0 **** 0.06
31894 H 107.40577879989618 42.91954548565886 100.46659338230825 H 0.0 **** 0.06
31895 H 105.62845217088389 43.01451830091543 100.43594902813885 H 0.0 **** 0.06
31896 C 24.595113952505812 57.98493127608293 33.99660423035141 C 0.0 **** -0.24
31897 H 24.846730938286044 57.32723543198037 34.82814262105612 H 0.0 **** 0.06
31898 H 25.462019822044994 58.594880415690994 33.740671882037816 H 0.0 **** 0.06
31899 H 23.76693070442434 58.63235101926409 34.28284223131655 H 0.0 **** 0.06
31900 H 24.30507384892428 57.3848217061755 33.13344876381963 H 0.0 **** 0.06
31901 C 36.26803937725417 85.87152818310769 15.565123204659699 C 0.0 **** -0.24
31902 H 35.85158721552324 86.82996460430357 15.872980680483238 H 0.0 **** 0.06
31903 H 37.33774529425722 85.85641779487077 15.773867037583045 H 0.0 **** 0.06
31904 H 36.10511060851482 85.7305524080209 14.496638245491965 H 0.0 **** 0.06
31905 H 35.77794432788001 85.06817754320318 16.11603399466668 H 0.0 **** 0.06
31906 C 66.49107602757908 54.425115161760175 45.199322758612055 C 0.0 **** -0.24
31907 H 67.29377053817564 54.73073828509246 45.86962496004401 H 0.0 **** 0.06
31908 H 65.54133469034434 54.811087224630114 45.5708534616719 H 0.0 **** 0.06
31909 H 66.44851720526998 53.33615869171604 45.15657140782045 H 0.0 **** 0.06
31910 H 66.68002488482978 54.821068599373916 44.20213510874865 H 0.0 **** 0.06
31911 C 3.1824974812910796 8.890253950694778 38.021461894128976 C 0.0 **** -0.24
31912 H 3.136486436468374 9.828945490020775 38.57385238383404 H 0.0 **** 0.06
31913 H 4.147364438527632 8.413692252451181 38.19614385423813 H 0.0 **** 0.06
31914 H 3.0612202262720984 9.088695579486483 36.95724023387885 H 0.0 **** 0.06
31915 H 2.3838924432028534 8.229830336540768 38.361426259707514 H 0.0 **** 0.06
31916 C 37.24656079858664 129.02411952991054 12.445274777637419 C 0.0 **** -0.24
31917 H 37.7470468343447 128.2752116336739 13.060568071725953 H 0.0 **** 0.06
31918 H 36.72414565479016 129.73188671448514 13.089477483642082 H 0.0 **** 0.06
31919 H 36.53016409944263 128.53290175764 11.788000208990695 H 0.0 **** 0.06
31920 H 37.98592703398782 129.55501542335634 11.84584240481379 H 0.0 **** 0.06
31921 C 45.96718247495646 115.89569194897865 45.570141189114025 C 0.0 **** -0.24
31922 H 45.312688419848236 116.72405291856143 45.844135291141214 H 0.0 **** 0.06
31923 H 46.47898179728584 115.52904380601933 46.46022358899634 H 0.0 **** 0.06
31924 H 46.70280247822775 116.23946210638468 44.84249334626972 H 0.0 **** 0.06
31925 H 45.37281044366956 115.09259434824702 45.13481581915231 H 0.0 **** 0.06
31926 C 117.47287402723722 99.55656069060758 88.79541121901954 C 0.0 **** -0.24
31927 H 118.53176233486255 99.65367492762684 88.55383207657991 H 0.0 **** 0.06
31928 H 117.13519410061318 98.55011414341938 88.54761959539921 H 0.0 **** 0.06
31929 H 116.90147257179336 100.28357202164726 88.21785776974306 H 0.0 **** 0.06
31930 H 117.32410349552123 99.73943610031762 89.85957519674751 H 0.0 **** 0.06
31931 C 102.66742676584336 48.01266355098818 23.507323721564276 C 0.0 **** -0.24
31932 H 102.54002523729845 49.09201846896286 23.416825462709063 H 0.0 **** 0.06
31933 H 101.92846916748063 47.618106294470834 24.205694227592616 H 0.0 **** 0.06
31934 H 103.6693416873622 47.7955293614054 23.875827770562964 H 0.0 **** 0.06
31935 H 102.52957056871564 47.54794410386593 22.530743672177096 H 0.0 **** 0.06
31936 C 107.26192266258666 24.541709451934366 32.67043836536169 C 0.0 **** -0.24
31937 H 107.77291537059541 24.135123986518778 31.79764928580147 H 0.0 **** 0.06
31938 H 107.95367807006349 24.573309090266278 33.51352559911183 H 0.0 **** 0.06
31939 H 106.41193895683756 23.907279154945854 32.921997438331914 H 0.0 **** 0.06
31940 H 106.9114231323449 25.549342069896866 32.450221240833116 H 0.0 **** 0.06
31941 C 82.15556208943002 127.13622695002653 49.02613230210579 C 0.0 **** -0.24
31942 H 82.17656000283534 127.3076332665371 50.102696771624665 H 0.0 **** 0.06
31943 H 81.12039747689641 127.08066655559844 48.688500320999196 H 0.0 **** 0.06
31944 H 82.664039086551 126.1992230162902 48.79806245811233 H 0.0 **** 0.06
31945 H 82.66093870826043 127.95700385519518 48.518978752673775 H 0.0 **** 0.06
31946 C 41.21380828651621 112.43665643430435 72.03139951559075 C 0.0 **** -0.24
31947 H 40.840342094142216 112.14447393311477 71.05008486768642 H 0.0 **** 0.06
31948 H 40.84100123875504 113.43018906773682 72.28071233132331 H 0.0 **** 0.06
31949 H 42.303319940646816 112.45050311956732 72.01550430170792 H 0.0 **** 0.06
31950 H 40.87017743333513 111.7209679092887 72.77851921902052 H 0.0 **** 0.06
31951 C 136.37020700880183 18.46470867587503 18.218699169556317 C 0.0 **** -0.24
31952 H 136.316180901943 19.466268296034798 17.791851919097894 H 0.0 **** 0.06
31953 H 137.25731336946222 18.38407636286741 18.84703968602703 H 0.0 **** 0.06
31954 H 136.42578235426876 17.7302705766175 17.414487024571827 H 0.0 **** 0.06
31955 H 135.48011290956316 18.278531304341307 18.820063921021173 H 0.0 **** 0.06
31956 C 7.95863214377551 82.14194185478524 44.220245311216274 C 0.0 **** -0.24
31957 H 6.870162957277714 82.16393685327556 44.28279258133034 H 0.0 **** 0.06
31958 H 8.368151257073922 83.03836619030272 44.686303876729426 H 0.0 **** 0.06
31959 H 8.261547372717025 82.10415754473169 43.17370253266074 H 0.0 **** 0.06
31960 H 8.333694236485922 81.2591500655715 44.738816601147846 H 0.0 **** 0.06
31961 C 59.38395084333928 52.2026415397375 73.94836204692405 C 0.0 **** -0.24
31962 H 60.21744511211409 52.82579173023559 73.6243185272621 H 0.0 **** 0.06
31963 H 58.45677906249455 52.58683072576754 73.52294551478967 H 0.0 **** 0.06
31964 H 59.320089478903185 52.2188465322707 75.03660292544214 H 0.0 **** 0.06
31965 H 59.542467551995685 51.17908561795555 73.60979040234061 H 0.0 **** 0.06
31966 C 37.53095287288929 25.942062927791177 16.33854715148118 C 0.0 **** -0.24
31967 H 37.4867874654623 24.89508397678454 16.03662065524145 H 0.0 **** 0.06
31968 H 37.80562642547042 26.005850856583407 17.3913023879243 H 0.0 **** 0.06
31969 H 36.55482903977534 26.403965444580216 16.188156257200802 H 0.0 **** 0.06
31970 H 38.27519123861617 26.461784748377468 15.735953174949827 H 0.0 **** 0.06
31971 C 80.84049013371352 118.42126196046496 65.75188068149768 C 0.0 **** -0.24
31972 H 79.95166193388519 117.8057091261461 65.89424729121369 H 0.0 **** 0.06
31973 H 80.55632185755182 119.36967702512828 65.29605361558325 H 0.0 **** 0.06
31974 H 81.54232087293998 117.90015064615349 65.10177791187648 H 0.0 **** 0.06
31975 H 81.30988181789249 118.60927968423178 66.71785214879255 H 0.0 **** 0.06
31976 C 123.22621227759876 14.7793101976944 11.866313919762263 C 0.0 **** -0.24
31977 H 122.93018377605887 13.760319522284021 12.116871740935736 H 0.0 **** 0.06
31978 H 124.30839439396439 14.875306551829226 11.953821769109368 H 0.0 **** 0.06
31979 H 122.74282570532856 15.475927056442117 12.551204006941703 H 0.0 **** 0.06
31980 H 122.92188004419961 15.00413963255852 10.843750615508583 H 0.0 **** 0.06
31981 C 78.86375385555345 84.84942705319924 38.808059210928434 C 0.0 **** -0.24
31982 H 77.99299545819127 84.75315988503408 38.160081994283075 H 0.0 **** 0.06
31983 H 79.05561878601537 83.89685515094143 39.30240797824837 H 0.0 **** 0.06
31984 H 78.67513131020502 85.61732819554317 39.55857533494503 H 0.0 **** 0.06
31985 H 79.73126986780215 85.13036498127823 38.21117153623726 H 0.0 **** 0.06
31986 C 52.87040576431501 86.84691098125853 51.35410208361475 C 0.0 **** -0.24
31987 H 52.853725952983 85.76239202128352 51.248288802269485 H 0.0 **** 0.06
31988 H 53.90497177535977 87.19038005588669 51.40208480102024 H 0.0 **** 0.06
31989 H 52.35045501220216 87.13016993902932 52.26868755875677 H 0.0 **** 0.06
31990 H 52.37535722051747 87.30307545318865 50.49720247175992 H 0.0 **** 0.06
31991 C 128.90562217499814 96.32674509790803 46.088921649180364 C 0.0 **** -0.24
31992 H 128.85702348321473 96.49317605748787 47.165436862169685 H 0.0 **** 0.06
31993 H 129.04725633832845 95.26334321406739 45.89174828398738 H 0.0 **** 0.06
31994 H 129.74236533822847 96.88770464849705 45.67246237119605 H 0.0 **** 0.06
31995 H 127.97630289772798 96.6618907854263 45.62746726605221 H 0.0 **** 0.06
31996 C 111.21327450958285 23.278220326996973 10.507460653733716 C 0.0 **** -0.24
31997 H 111.42205201586111 23.8367199163622 11.41930229058002 H 0.0 **** 0.06
31998 H 110.24070180113006 22.792975706397897 10.593501791680055 H 0.0 **** 0.06
31999 H 111.98458521960396 22.521595380705946 10.360986847087204 H 0.0 **** 0.06
32000 H 111.20655690812248 23.95881823426606 9.656875936164852 H 0.0 **** 0.06
32001 C 134.2349081510681 0.17410234090698395 89.12608441142879 C 0.0 **** -0.24
32002 H 133.28896816446326 0.20805741306236314 89.66566814958847 H 0.0 **** 0.06
32003 H 134.2130398041025 -0.6432505486229161 88.40537844872699 H 0.0 **** 0.06
32004 H 135.05022351373924 0.014574125904346147 89.83252317223463 H 0.0 **** 0.06
32005 H 134.38873356493718 1.1174105838210835 88.60180645586863 H 0.0 **** 0.06
32006 C 132.69947173102915 98.30996699907097 46.68629802541983 C 0.0 **** -0.24
32007 H 133.4954686493755 97.8893544754935 46.07307131207435 H 0.0 **** 0.06
32008 H 131.74522957268255 98.19309786612429 46.172242008227286 H 0.0 **** 0.06
32009 H 132.89311580122347 99.36866064111898 46.8575603614962 H 0.0 **** 0.06
32010 H 132.66364881491003 97.78680334866853 47.6424249126774 H 0.0 **** 0.06
32011 C 77.49301243531197 100.29403698103403 44.55544242708277 C 0.0 **** -0.24
32012 H 77.08063360710231 99.28983902360363 44.64322133604429 H 0.0 **** 0.06
32013 H 78.15755743679516 100.33975839122922 43.69222021307621 H 0.0 **** 0.06
32014 H 78.05372851035771 100.53665649970719 45.45906646008035 H 0.0 **** 0.06
32015 H 76.68177964819073 101.00948937256328 44.427601825088686 H 0.0 **** 0.06
32016 C 8.382597910227673 30.07351606121574 13.574466555916501 C 0.0 **** -0.24
32017 H 8.634372173632755 31.116645188639282 13.769010802186727 H 0.0 **** 0.06
32018 H 9.27804914173015 29.535031836771054 13.264087923771427 H 0.0 **** 0.06
32019 H 7.634676224045791 30.022225808581283 12.783738736435396 H 0.0 **** 0.06
32020 H 7.982425702099135 29.621362582410995 14.482703067440013 H 0.0 **** 0.06
32021 C 131.01119017408232 49.549199481849925 52.227833384318444 C 0.0 **** -0.24
32022 H 131.4506532935932 48.61889079752157 52.587326037932584 H 0.0 **** 0.06
32023 H 130.13295977987863 49.32614335503865 51.62175549049611 H 0.0 **** 0.06
32024 H 131.74270320473534 50.08648344206685 51.62397851025841 H 0.0 **** 0.06
32025 H 130.71911311799056 50.16595415925936 53.077959102820174 H 0.0 **** 0.06
32026 C 57.830708555880506 131.45123761865156 123.79877457705518 C 0.0 **** -0.24
32027 H 57.4289542234921 130.47220935557658 124.06032416704647 H 0.0 **** 0.06
32028 H 57.51123936125643 131.71593153944195 122.79001905742459 H 0.0 **** 0.06
32029 H 58.919306504903204 131.41978974140736 123.83958609013712 H 0.0 **** 0.06
32030 H 57.46128775892271 132.19499224994053 124.504331346538 H 0.0 **** 0.06
32031 C 25.593983434501183 109.54455248918825 38.64011308994344 C 0.0 **** -0.24
32032 H 25.88791553855026 109.48525862067106 39.68757820655841 H 0.0 **** 0.06
32033 H 24.50637782479373 109.56648901015728 38.568294511457395 H 0.0 **** 0.06
32034 H 25.976260688080572 108.6742805910125 38.10579106297084 H 0.0 **** 0.06
32035 H 26.00551886435619 110.45105660576118 38.19747905483581 H 0.0 **** 0.06
32036 C 48.70271267928328 45.87431130421095 29.385714491357135 C 0.0 **** -0.24
32037 H 48.066569731734816 46.491893565657904 28.754114761400984 H 0.0 **** 0.06
32038 H 49.24861025606093 46.50926411385359 30.08434377812179 H 0.0 **** 0.06
32039 H 49.41086303629389 45.327030015204 28.763118034245736 H 0.0 **** 0.06
32040 H 48.08704208053889 45.167076180528284 29.941568123419216 H 0.0 **** 0.06
32041 C 85.71975010952264 119.3939183948496 5.710609079395841 C 0.0 **** -0.24
32042 H 86.12668975009638 118.45001856655813 6.074661754547389 H 0.0 **** 0.06
32043 H 86.12201851058092 119.6031459271415 4.718534427900767 H 0.0 **** 0.06
32044 H 85.99950256176447 120.19676940160991 6.392612658314675 H 0.0 **** 0.06
32045 H 84.63391615789487 119.32445551130121 5.6558684050229715 H 0.0 **** 0.06
32046 C 80.15586847863021 73.0520116332667 132.53090010602588 C 0.0 **** -0.24
32047 H 79.26876814643892 73.12376227228576 133.16024970020095 H 0.0 **** 0.06
32048 H 80.71319957386626 72.15205280137039 132.79009924891318 H 0.0 **** 0.06
32049 H 80.78466392158622 73.92828483310718 132.68902233227354 H 0.0 **** 0.06
32050 H 79.85542730614188 73.0058613801544 131.48365306493628 H 0.0 **** 0.06
32051 C 16.609851818736757 75.57320594086217 28.642480390474134 C 0.0 **** -0.24
32052 H 17.132177751472284 75.37135569936628 27.708448237028904 H 0.0 **** 0.06
32053 H 17.334849887428817 75.8094158206093 29.421546348489017 H 0.0 **** 0.06
32054 H 16.034011373869845 74.6947771418788 28.93503247488792 H 0.0 **** 0.06
32055 H 15.935549852720357 76.41962487266926 28.505626480236657 H 0.0 **** 0.06
32056 C 26.135652371153128 131.65765168875302 106.5695745624261 C 0.0 **** -0.24
32057 H 26.68914695346737 132.29862346738975 107.254757692784 H 0.0 **** 0.06
32058 H 25.789880204029345 130.77003031412542 107.10069228112081 H 0.0 **** 0.06
32059 H 26.78545568300487 131.3581927250649 105.7470758926839 H 0.0 **** 0.06
32060 H 25.27791712136178 132.20179794416987 106.17374609760466 H 0.0 **** 0.06
32061 C 35.0736189097226 65.84167136176427 41.664853186464484 C 0.0 **** -0.24
32062 H 34.34360590225768 66.56111484470381 41.29590050922002 H 0.0 **** 0.06
32063 H 35.91400119719498 65.78986441266836 40.97293289249919 H 0.0 **** 0.06
32064 H 34.60751062853561 64.85962794863282 41.745412911314844 H 0.0 **** 0.06
32065 H 35.42955769285685 66.15597678599323 42.64656281627188 H 0.0 **** 0.06
32066 C 133.40305641227468 33.25557317053585 110.58868284914621 C 0.0 **** -0.24
32067 H 132.77694000203667 32.37528375959538 110.44423271411 H 0.0 **** 0.06
32068 H 133.3682170967316 33.55748833849961 111.63601353680738 H 0.0 **** 0.06
32069 H 133.0350788832523 34.06911012443671 109.96312530072552 H 0.0 **** 0.06
32070 H 134.4306542960697 33.02073114267494 110.31169754204706 H 0.0 **** 0.06
32071 C 116.98449619897318 109.6388207644014 59.084338387709536 C 0.0 **** -0.24
32072 H 117.02971521386377 109.52730445140469 60.167374575539526 H 0.0 **** 0.06
32073 H 117.51353614545644 110.54510232683441 58.790062133567034 H 0.0 **** 0.06
32074 H 115.94281581773214 109.70785803354315 58.76995020641209 H 0.0 **** 0.06
32075 H 117.4505134111933 108.77486146315802 58.609905702794904 H 0.0 **** 0.06
32076 C 50.19449353423039 99.18485435621452 47.83370575451718 C 0.0 **** -0.24
32077 H 49.61702313390566 99.94625508444278 47.3090478215327 H 0.0 **** 0.06
32078 H 50.26116176854589 99.4441644102597 48.889983024968416 H 0.0 **** 0.06
32079 H 51.195995678700456 99.13110662128514 47.40788342470593 H 0.0 **** 0.06
32080 H 49.7018912947521 98.21782969150632 47.72729409923156 H 0.0 **** 0.06
32081 C 133.3135933475546 87.26240847785556 104.28191387954666 C 0.0 **** -0.24
32082 H 132.90203940393266 88.10433673336416 103.7256179092486 H 0.0 **** 0.06
32083 H 133.98502025221273 87.63277017726041 105.05701014160479 H 0.0 **** 0.06
32084 H 133.86539583686135 86.61299397137881 103.60209486963208 H 0.0 **** 0.06
32085 H 132.5016112768383 86.70029487002074 104.74236195841871 H 0.0 **** 0.06
32086 C 27.57012643171555 61.01534816156989 90.11457011899142 C 0.0 **** -0.24
32087 H 28.02051843897982 60.07688820983408 89.79065340404202 H 0.0 **** 0.06
32088 H 26.507163415245998 60.86256786910563 90.2996993765795 H 0.0 **** 0.06
32089 H 27.700339144648865 61.767059708932706 89.3356256458701 H 0.0 **** 0.06
32090 H 28.054265587914415 61.35340466582585 91.03067062135841 H 0.0 **** 0.06
32091 C 31.47440764968428 47.07618167012261 4.8172566509151125 C 0.0 **** -0.24
32092 H 32.4948979525725 47.23228815955191 4.4674690462449576 H 0.0 **** 0.06
32093 H 31.1093781429646 46.115603507034734 4.454127058918459 H 0.0 **** 0.06
32094 H 30.83478367779003 47.87418800110957 4.440045652097751 H 0.0 **** 0.06
32095 H 31.45955424772444 47.08262454732514 5.907204784739463 H 0.0 **** 0.06
32096 C 31.052189750790482 68.9371532799554 89.31584284534676 C 0.0 **** -0.24
32097 H 29.976319175973977 68.88147008864027 89.15165720368385 H 0.0 **** 0.06
32098 H 31.288525991688637 69.84994423636485 89.86246785471769 H 0.0 **** 0.06
32099 H 31.56587951899244 68.94446317722185 88.3542579706499 H 0.0 **** 0.06
32100 H 31.376791670591118 68.07232309975345 89.89385442147436 H 0.0 **** 0.06
32101 C 100.09092780061006 126.35022627509505 106.90935970445194 C 0.0 **** -0.24
32102 H 99.89541078653409 125.547246524206 107.62106241247358 H 0.0 **** 0.06
32103 H 99.21771881913128 126.48972318618735 106.27105898569204 H 0.0 **** 0.06
32104 H 100.95222262513076 126.0886825384797 106.2949305832888 H 0.0 **** 0.06
32105 H 100.29820577600434 127.27307226254948 107.45085778712152 H 0.0 **** 0.06
32106 C 57.40668075237505 115.62005441196152 106.42727784044504 C 0.0 **** -0.24
32107 H 58.283876269345456 116.25363251544209 106.29733993771345 H 0.0 **** 0.06
32108 H 57.59604067060076 114.64221456912324 105.98526755496519 H 0.0 **** 0.06
32109 H 56.549814315238734 116.08193067221262 105.93667892359548 H 0.0 **** 0.06
32110 H 57.19713976609921 115.50344005951368 107.49081380762283 H 0.0 **** 0.06
32111 C 16.27737299984227 46.846111168627104 60.149398527735926 C 0.0 **** -0.24
32112 H 16.339971168536252 45.88587791350257 59.637274877513164 H 0.0 **** 0.06
32113 H 15.230983905117384 47.11007985933338 60.29917638163461 H 0.0 **** 0.06
32114 H 16.7628197866934 47.61156572579128 59.54511569940031 H 0.0 **** 0.06
32115 H 16.777285778877285 46.77438294419407 61.11571543774208 H 0.0 **** 0.06
32116 C 8.653780111121172 119.67100348030749 31.944743386221262 C 0.0 **** -0.24
32117 H 9.073790945508737 119.01869871980512 32.71108437470673 H 0.0 **** 0.06
32118 H 9.457176119301142 120.05448500149862 31.314803789473274 H 0.0 **** 0.06
32119 H 8.136101963761433 120.50350156865943 32.42074370988587 H 0.0 **** 0.06
32120 H 7.949589553392389 119.10636540660016 31.333986848443715 H 0.0 **** 0.06
32121 C 130.60052333622846 10.605976982705329 115.12444696819628 C 0.0 **** -0.24
32122 H 131.39714885957537 9.879013387633524 115.28775907926038 H 0.0 **** 0.06
32123 H 130.2772450641712 11.010556131366329 116.08373730399853 H 0.0 **** 0.06
32124 H 129.75856201762593 10.118101738168935 114.63333807405829 H 0.0 **** 0.06
32125 H 130.97008405959687 11.4142109629244 114.49395372363955 H 0.0 **** 0.06
32126 C 9.592100762302124 20.052706899204168 131.27964928780403 C 0.0 **** -0.24
32127 H 9.071844842487451 19.388073907957704 130.59017063553276 H 0.0 **** 0.06
32128 H 8.918980075119663 20.850940403456804 131.59157051187503 H 0.0 **** 0.06
32129 H 10.461477157292393 20.483597350629566 130.78217647010763 H 0.0 **** 0.06
32130 H 9.916435922795301 19.488291603724747 132.15374031590522 H 0.0 **** 0.06
32131 C 47.62972044557283 16.91623757444927 81.70696733404063 C 0.0 **** -0.24
32132 H 48.70704173319719 17.032076500413325 81.59113893357647 H 0.0 **** 0.06
32133 H 47.14069294402262 17.083219367518552 80.74733759455407 H 0.0 **** 0.06
32134 H 47.26273909240648 17.641835747722723 82.43412077277239 H 0.0 **** 0.06
32135 H 47.40902947505904 15.907591486112096 82.05763051878411 H 0.0 **** 0.06
32136 C 107.37852887569824 128.99795202317833 43.38788463240542 C 0.0 **** -0.24
32137 H 106.29344380706414 128.90699852292164 43.349117714168244 H 0.0 **** 0.06
32138 H 107.67757017313266 129.96024791857553 42.97033577058323 H 0.0 **** 0.06
32139 H 107.83067352202477 128.19348076801805 42.8078637042895 H 0.0 **** 0.06
32140 H 107.71208415907435 128.93118278081414 44.423287833083464 H 0.0 **** 0.06
32141 C 54.35443982427482 51.186413039918534 110.43987165614283 C 0.0 **** -0.24
32142 H 53.27204859484674 51.23674642473429 110.54871438199086 H 0.0 **** 0.06
32143 H 54.82598313338323 51.370108168780746 111.40610979643901 H 0.0 **** 0.06
32144 H 54.68347347758541 51.94161731533575 109.72549048484063 H 0.0 **** 0.06
32145 H 54.63840760517806 50.19778039724463 110.07912262658897 H 0.0 **** 0.06
32146 C 98.92126338423162 135.98674440294866 67.72012215992746 C 0.0 **** -0.24
32147 H 99.68549073700665 136.69695512071087 68.03425796837774 H 0.0 **** 0.06
32148 H 99.24096196356379 135.4919564290978 66.8017677362421 H 0.0 **** 0.06
32149 H 97.98535747707697 136.51569819365528 67.54097956792216 H 0.0 **** 0.06
32150 H 98.77390885997451 135.24128757998193 68.50230428916014 H 0.0 **** 0.06
32151 C 77.93275460708062 43.55726281848277 110.20815632791275 C 0.0 **** -0.24
32152 H 77.15759676808861 44.020987560117064 110.81847326537115 H 0.0 **** 0.06
32153 H 78.29981521604088 44.27768048144726 109.47750323766158 H 0.0 **** 0.06
32154 H 77.5173889212056 42.69251780452357 109.68953457335175 H 0.0 **** 0.06
32155 H 78.75395631275165 43.236223875947715 110.8489010607914 H 0.0 **** 0.06
32156 C 73.85725652131354 18.574833642927757 109.12171777790873 C 0.0 **** -0.24
32157 H 74.48541305386522 19.310367368630097 109.62420516079885 H 0.0 **** 0.06
32158 H 72.96606008670896 19.065745065975534 108.72996788462133 H 0.0 **** 0.06
32159 H 73.56434064285742 17.801171223394817 109.83155143159897 H 0.0 **** 0.06
32160 H 74.41441210076498 18.122632897948137 108.30067560432074 H 0.0 **** 0.06
32161 C 62.951246613934586 91.14548138670796 49.50702864958963 C 0.0 **** -0.24
32162 H 63.34064082016289 91.90220877017055 50.18884015491594 H 0.0 **** 0.06
32163 H 61.937742926758716 90.87598285371467 49.80413280316223 H 0.0 **** 0.06
32164 H 63.587857824687774 90.26172859325163 49.54385536865951 H 0.0 **** 0.06
32165 H 62.93944356414505 91.54239874647345 48.49245124465351 H 0.0 **** 0.06
32166 C 65.61708831826459 67.18204805565911 57.93231810866145 C 0.0 **** -0.24
32167 H 65.4870330046298 68.23957376720251 57.69924276455008 H 0.0 **** 0.06
32168 H 64.74886638756168 66.82323909010178 58.48475529996577 H 0.0 **** 0.06
32169 H 66.51334031142967 67.05164453980748 58.53801465404837 H 0.0 **** 0.06
32170 H 65.71812143388712 66.61644537717076 57.00644179558115 H 0.0 **** 0.06
32171 C 67.54613344600136 14.576228937743515 112.28871134660832 C 0.0 **** -0.24
32172 H 68.53102626351678 14.307170393131017 112.66894633663415 H 0.0 **** 0.06
32173 H 67.62619848617909 14.85606718978078 111.23759038680495 H 0.0 **** 0.06
32174 H 67.15294512946005 15.416883101225281 112.85914321940311 H 0.0 **** 0.06
32175 H 66.87405674270407 13.723586338141729 112.38730941070091 H 0.0 **** 0.06
32176 C 15.865824683141057 90.11121520396708 61.864913217578135 C 0.0 **** -0.24
32177 H 14.991368549524452 89.55523228015556 62.20099275804051 H 0.0 **** 0.06
32178 H 15.58875930584665 91.15034979902188 61.685438530839804 H 0.0 **** 0.06
32179 H 16.24406404185558 89.671278046844 60.94147052566319 H 0.0 **** 0.06
32180 H 16.639106835337458 90.0680006898468 62.63175105576917 H 0.0 **** 0.06
32181 C 94.4524423335396 118.05763428007864 78.49393104594834 C 0.0 **** -0.24
32182 H 93.99260540235088 118.72675811510882 77.76734360745291 H 0.0 **** 0.06
32183 H 95.21542438059922 118.59798840965078 79.05432454633001 H 0.0 **** 0.06
32184 H 94.91111687152173 117.21646603379409 77.9737928629018 H 0.0 **** 0.06
32185 H 93.6908532617651 117.68761878977219 79.18007000172064 H 0.0 **** 0.06
32186 C 22.44046892765911 127.98317525458671 101.53164515185594 C 0.0 **** -0.24
32187 H 22.951573135435865 127.59940489948954 102.41398511781887 H 0.0 **** 0.06
32188 H 22.856298128154833 128.95493960892207 101.26439208164669 H 0.0 **** 0.06
32189 H 21.376296939744293 128.08971573899046 101.74558027215704 H 0.0 **** 0.06
32190 H 22.57548955898116 127.28879311516596 100.70238286882488 H 0.0 **** 0.06
32191 C 47.60974531750128 51.38056332259009 36.61169275870057 C 0.0 **** -0.24
32192 H 48.16693507877636 52.283696275637396 36.36449555034642 H 0.0 **** 0.06
32193 H 46.549614949743074 51.540989711083455 36.413069790119096 H 0.0 **** 0.06
32194 H 47.75029237321756 51.14530191973165 37.666867946783555 H 0.0 **** 0.06
32195 H 47.97255767970253 50.55162366644146 36.00352639736229 H 0.0 **** 0.06
32196 C 110.87732753335334 2.6811017147986718 12.842727816531244 C 0.0 **** -0.24
32197 H 110.84726137820655 2.5469716514409697 13.92396285474161 H 0.0 **** 0.06
32198 H 109.97479994584143 3.200514094002642 12.516479567193912 H 0.0 **** 0.06
32199 H 110.93188913645724 1.7066559962582915 12.357667386119488 H 0.0 **** 0.06
32200 H 111.75351349531843 3.2708459756267985 12.574302960722079 H 0.0 **** 0.06
32201 C 22.890833370108645 32.98862885716997 127.37777486014085 C 0.0 **** -0.24
32202 H 22.785411659621268 33.84230532432153 126.70816689933686 H 0.0 **** 0.06
32203 H 23.73648260348444 32.37886324535651 127.0588479719427 H 0.0 **** 0.06
32204 H 21.97915257365169 32.39086147574325 127.35030855825167 H 0.0 **** 0.06
32205 H 23.061423610761267 33.344351823424404 128.39465453651565 H 0.0 **** 0.06
32206 C 62.84308958777493 133.6798923759944 99.55730871652693 C 0.0 **** -0.24
32207 H 63.56006604356912 134.4613681732753 99.3058800067646 H 0.0 **** 0.06
32208 H 62.66046486736752 133.68601141372505 100.63222027761782 H 0.0 **** 0.06
32209 H 63.244437443229984 132.70971489347244 99.26194507469037 H 0.0 **** 0.06
32210 H 61.90738999693326 133.86247502350471 99.02918950703486 H 0.0 **** 0.06
32211 C 22.10464724075605 69.86052237230973 60.703446459084475 C 0.0 **** -0.24
32212 H 21.040699017163774 69.91887984093458 60.47451277589735 H 0.0 **** 0.06
32213 H 22.236007886893717 69.54011954143934 61.73730694286202 H 0.0 **** 0.06
32214 H 22.559088117251235 70.84179726123199 60.56643497050058 H 0.0 **** 0.06
32215 H 22.581152971991997 69.14309973930784 60.035737621517754 H 0.0 **** 0.06
32216 C 41.38047048232511 100.98745969883794 136.60282492869788 C 0.0 **** -0.24
32217 H 41.27406828976242 100.09150455416977 135.99266926605605 H 0.0 **** 0.06
32218 H 42.17305870040348 100.8351034065904 137.3361322224608 H 0.0 **** 0.06
32219 H 40.441502023181215 101.18908009597669 137.1187847427528 H 0.0 **** 0.06
32220 H 41.63280293881666 101.8339468972132 135.9645829751009 H 0.0 **** 0.06
32221 C 127.08195820259172 110.18708592465586 60.689508483190934 C 0.0 **** -0.24
32222 H 126.76435265750726 109.14507332956137 60.65160688514004 H 0.0 **** 0.06
32223 H 126.27284970154693 110.79950121907675 61.089498578863584 H 0.0 **** 0.06
32224 H 127.33207683972935 110.5270884219567 59.684468663771725 H 0.0 **** 0.06
32225 H 127.95728179709926 110.27689087380631 61.33187806676244 H 0.0 **** 0.06
32226 C 31.699568090063508 132.0913252128659 128.02585377929262 C 0.0 **** -0.24
32227 H 31.825358439942647 131.00966989852336 128.07753209013114 H 0.0 **** 0.06
32228 H 31.092215472644796 132.34510287574273 127.15633447799283 H 0.0 **** 0.06
32229 H 32.67700719549066 132.5659076621964 127.93774947410901 H 0.0 **** 0.06
32230 H 31.204474491579617 132.4428944655203 128.93061253957853 H 0.0 **** 0.06
32231 C 50.37685566378394 73.23277015517553 55.865066868382655 C 0.0 **** -0.24
32232 H 50.67759475330905 73.92261145451441 55.076663396510924 H 0.0 **** 0.06
32233 H 49.81592116701401 73.77365915974781 56.62707646543936 H 0.0 **** 0.06
32234 H 51.263675394529855 72.78599182385778 56.31387074655254 H 0.0 **** 0.06
32235 H 49.74923254642229 72.44810086546147 55.4405383407651 H 0.0 **** 0.06
32236 C 70.15454299576851 63.193211554756545 65.41166185412993 C 0.0 **** -0.24
32237 H 70.15348388521451 62.129397799403876 65.17053675240709 H 0.0 **** 0.06
32238 H 69.1269778844055 63.53949822454183 65.52530856420708 H 0.0 **** 0.06
32239 H 70.63883940630852 63.747358115024895 64.60868329946959 H 0.0 **** 0.06
32240 H 70.69728801851431 63.353668284869656 66.34383543980158 H 0.0 **** 0.06
32241 C 39.95897420972363 116.26446995252698 65.73170231097062 C 0.0 **** -0.24
32242 H 39.750502504165546 117.24009773457666 66.16938482591242 H 0.0 **** 0.06
32243 H 39.15864792063668 115.99780199782339 65.04142331262953 H 0.0 **** 0.06
32244 H 40.02004681296127 115.51694586883016 66.52349963758233 H 0.0 **** 0.06
32245 H 40.90564337383102 116.30253891535739 65.19412604573567 H 0.0 **** 0.06
32246 C 70.44468929056359 67.3897887622379 37.705940957985575 C 0.0 **** -0.24
32247 H 71.18369789840796 67.93105084558357 38.2954921687226 H 0.0 **** 0.06
32248 H 70.78054363756263 66.3628891276271 37.55645138494191 H 0.0 **** 0.06
32249 H 70.32402523451071 67.87703660394614 36.73879114887595 H 0.0 **** 0.06
32250 H 69.49076110966041 67.38734079804614 38.232554723601936 H 0.0 **** 0.06
32251 C 9.982839352348321 35.491824279688025 57.49429685780284 C 0.0 **** -0.24
32252 H 10.147695353780293 35.44709681301227 56.41740408216522 H 0.0 **** 0.06
32253 H 8.912563497190035 35.501420513370135 57.697438458474906 H 0.0 **** 0.06
32254 H 10.438108741249494 36.39802508347596 57.89324663753203 H 0.0 **** 0.06
32255 H 10.435471825114902 34.61970007928855 57.96597924985447 H 0.0 **** 0.06
32256 C 123.84822198413488 46.696419538750234 132.23109614429 C 0.0 **** -0.24
32257 H 122.99398721738794 47.367148498902566 132.13731608016877 H 0.0 **** 0.06
32258 H 124.59140571157084 46.947666310609975 131.47446871889684 H 0.0 **** 0.06
32259 H 123.5190878965091 45.66738614620695 132.09048661184468 H 0.0 **** 0.06
32260 H 124.28736719221163 46.80540117079457 133.2225791427658 H 0.0 **** 0.06
32261 C 16.113887951717743 91.12570488680535 34.97244702434722 C 0.0 **** -0.24
32262 H 16.216159786208152 92.17186789017177 34.68574254515207 H 0.0 **** 0.06
32263 H 17.08783289847031 90.63795898619514 34.91816719723079 H 0.0 **** 0.06
32264 H 15.42011417875085 90.62953462230121 34.293998744554955 H 0.0 **** 0.06
32265 H 15.73285232455413 91.06446770273061 35.99188359617585 H 0.0 **** 0.06
32266 C 105.31500784083374 92.54031584824347 53.14272725144791 C 0.0 **** -0.24
32267 H 104.42176739577991 92.56364338430627 52.5176916995821 H 0.0 **** 0.06
32268 H 105.32926746111241 91.61588402903882 53.72073812719589 H 0.0 **** 0.06
32269 H 105.30593904262838 93.3937538730146 53.820209594423716 H 0.0 **** 0.06
32270 H 106.20161194558881 92.58770084817826 52.510312124799626 H 0.0 **** 0.06
32271 C 69.6315516335286 73.82109811320446 63.05180491767402 C 0.0 **** -0.24
32272 H 68.55485096105684 73.9572414469563 62.94982098818694 H 0.0 **** 0.06
32273 H 69.94011237513635 74.10841319383323 64.0578831754651 H 0.0 **** 0.06
32274 H 70.14661001282657 74.44408171269136 62.320941498720444 H 0.0 **** 0.06
32275 H 69.88254156672294 72.77472511017538 62.87936179117749 H 0.0 **** 0.06
32276 C 126.59339818400974 54.715574707524084 51.987590429147915 C 0.0 **** -0.24
32277 H 126.96751369968169 53.847092218483084 52.53024670775318 H 0.0 **** 0.06
32278 H 125.88498860843731 55.2578542706314 52.61325709485706 H 0.0 **** 0.06
32279 H 126.09415333343824 54.38617702390886 51.076025930792994 H 0.0 **** 0.06
32280 H 127.42700056071544 55.36945653170194 51.729403004316055 H 0.0 **** 0.06
32281 C 9.14179871125613 133.20845508735988 104.1318382327819 C 0.0 **** -0.24
32282 H 9.068876326854209 132.18597585011207 103.76090480258037 H 0.0 **** 0.06
32283 H 10.124163551128593 133.36274871702562 104.57892087409458 H 0.0 **** 0.06
32284 H 8.370036153494983 133.378613102259 104.88302988699881 H 0.0 **** 0.06
32285 H 9.004197294734677 133.90590499328198 103.30578585936387 H 0.0 **** 0.06
32286 C 79.1614084551178 38.14118598725406 16.720062141908556 C 0.0 **** -0.24
32287 H 78.71101580399761 37.15196103825659 16.650661598349416 H 0.0 **** 0.06
32288 H 79.15544732068088 38.612416732226336 15.736524560668386 H 0.0 **** 0.06
32289 H 80.18911016327104 38.049008403266924 17.071881086467442 H 0.0 **** 0.06
32290 H 78.59209426049904 38.752718999817006 17.419445973378515 H 0.0 **** 0.06
32291 C 125.66847969540181 93.0251649583733 82.4906758265503 C 0.0 **** -0.24
32292 H 124.74853450550191 92.74188338755809 83.00132289082089 H 0.0 **** 0.06
32293 H 125.53405387766588 92.9155508246944 81.4139666909634 H 0.0 **** 0.06
32294 H 126.48206859499429 92.38129543751421 82.82308243421002 H 0.0 **** 0.06
32295 H 125.90767403095657 94.06348294102492 82.72329775192739 H 0.0 **** 0.06
32296 C 122.93718413674804 17.876518765433048 72.09988610340429 C 0.0 **** -0.24
32297 H 123.03912261963228 17.963135054651048 71.01759119005351 H 0.0 **** 0.06
32298 H 123.57179299022005 17.067081150861327 72.45995052556873 H 0.0 **** 0.06
32299 H 121.89782570585857 17.661797749426455 72.35016203371333 H 0.0 **** 0.06
32300 H 123.23877476592855 18.812652782067687 72.5689204516272 H 0.0 **** 0.06
32301 C 93.02483746239517 20.858422246343082 82.72474344243763 C 0.0 **** -0.24
32302 H 93.78063844823095 20.14008122794297 82.40846654661834 H 0.0 **** 0.06
32303 H 92.93153503287604 20.833858751920957 83.81094756768228 H 0.0 **** 0.06
32304 H 92.06755030841964 20.602233931110902 82.27142028239295 H 0.0 **** 0.06
32305 H 93.32037955314715 21.85901401535105 82.4077086025652 H 0.0 **** 0.06
32306 C 48.79889916530834 103.32990652117168 92.76576395342448 C 0.0 **** -0.24
32307 H 49.307429480246185 104.03658891416528 93.4212385563684 H 0.0 **** 0.06
32308 H 48.39596968601535 102.50956778214594 93.35938186985425 H 0.0 **** 0.06
32309 H 49.50813397955909 102.93786359925949 92.03631867109925 H 0.0 **** 0.06
32310 H 47.986512727614496 103.83701303339008 92.24597044978412 H 0.0 **** 0.06
32311 C 66.72363254764066 67.62551194350692 27.56358900467005 C 0.0 **** -0.24
32312 H 67.12135232505022 68.1552799717146 26.698461939620906 H 0.0 **** 0.06
32313 H 66.48148515072755 68.34191457036042 28.348726563210292 H 0.0 **** 0.06
32314 H 67.46719345020577 66.9200982772166 27.932455828434698 H 0.0 **** 0.06
32315 H 65.82207446028983 67.08444637319207 27.274552377434624 H 0.0 **** 0.06
32316 C 101.39715044958382 116.80323786329356 123.08928559857164 C 0.0 **** -0.24
32317 H 101.91864393091367 116.73920711598541 122.1345114613191 H 0.0 **** 0.06
32318 H 101.54824762401512 115.87934441501517 123.64798643352692 H 0.0 **** 0.06
32319 H 100.3320066361922 116.95057523073609 122.91188097432281 H 0.0 **** 0.06
32320 H 101.78979077091748 117.6431506910836 123.66202992280185 H 0.0 **** 0.06
32321 C 21.91641608609808 114.76715917751682 98.65595351147394 C 0.0 **** -0.24
32322 H 22.0393927422395 115.83958318609098 98.80818873456614 H 0.0 **** 0.06
32323 H 22.75146642744687 114.23748678168988 99.11511379895056 H 0.0 **** 0.06
32324 H 21.892901123435706 114.5520588033281 97.58750980641823 H 0.0 **** 0.06
32325 H 20.982608440501565 114.44021769331292 99.11299026423752 H 0.0 **** 0.06
32326 C 62.15634208390293 84.26212168659777 39.94817004486993 C 0.0 **** -0.24
32327 H 62.88578067042721 83.51790883795388 40.269714292010505 H 0.0 **** 0.06
32328 H 62.624827259021856 85.245915137243 39.931522944277006 H 0.0 **** 0.06
32329 H 61.316505078390264 84.27029113840237 40.64254105535249 H 0.0 **** 0.06
32330 H 61.79891439940508 84.01227016933836 38.94928880859319 H 0.0 **** 0.06
32331 C 122.95654171068333 17.810649017305593 78.08513376382888 C 0.0 **** -0.24
32332 H 122.29871820447647 17.326950900242423 77.36222610501714 H 0.0 **** 0.06
32333 H 123.22948035160772 17.09668388821541 78.86213270102296 H 0.0 **** 0.06
32334 H 122.44026759151177 18.658719561142846 78.53522648726398 H 0.0 **** 0.06
32335 H 123.85657604925098 18.159909301306357 77.57967508215586 H 0.0 **** 0.06
32336 C 94.55089248391546 117.98857311481618 48.89639301398569 C 0.0 **** -0.24
32337 H 94.46584367976456 117.8282951295079 49.97160404993858 H 0.0 **** 0.06
32338 H 94.57947831988021 119.05926247547649 48.69127778129075 H 0.0 **** 0.06
32339 H 93.69260304202913 117.54443361673913 48.39461189543587 H 0.0 **** 0.06
32340 H 95.46667320838428 117.52358890239415 48.53143766516135 H 0.0 **** 0.06
32341 C 62.39437383391231 88.07907931770188 56.313644168057806 C 0.0 **** -0.24
32342 H 61.34316686630049 88.21805131459712 56.05768550182995 H 0.0 **** 0.06
32343 H 62.94795762672436 88.98848777441617 56.07736179267238 H 0.0 **** 0.06
32344 H 62.800115211174216 87.24742699427003 55.738089319879975 H 0.0 **** 0.06
32345 H 62.48337164050548 87.86447874938517 57.37742042841256 H 0.0 **** 0.06
32346 C 117.95323968765692 87.02096545200146 29.142306612689254 C 0.0 **** -0.24
32347 H 117.23083757766742 87.5743504198812 28.543394039679015 H 0.0 **** 0.06
32348 H 117.5819963036331 86.01093197001751 29.318021757975885 H 0.0 **** 0.06
32349 H 118.09616967491345 87.52779154392759 30.097174372206382 H 0.0 **** 0.06
32350 H 118.90406253475221 86.97176832357201 28.611649833920126 H 0.0 **** 0.06
32351 C 59.72887503846732 99.79852233217845 46.31875542067138 C 0.0 **** -0.24
32352 H 59.427909574241866 98.96295681489828 46.94980380640419 H 0.0 **** 0.06
32353 H 60.73036167584348 100.12307839250394 46.60047144959266 H 0.0 **** 0.06
32354 H 59.02852952338698 100.62354524655345 46.449749395912406 H 0.0 **** 0.06
32355 H 59.72833435708098 99.4837532400148 45.27445313698185 H 0.0 **** 0.06
32356 C 111.29195512791989 94.6274318968515 41.11498044614626 C 0.0 **** -0.24
32357 H 111.0422510351074 93.6141803135342 41.43247570129243 H 0.0 **** 0.06
32358 H 112.3488929488521 94.81649514225218 41.3019311892796 H 0.0 **** 0.06
32359 H 110.68937431966947 95.34215569159714 41.67634251560716 H 0.0 **** 0.06
32360 H 111.08547423617287 94.73532010996178 40.049589488022484 H 0.0 **** 0.06
32361 C 53.44389766997446 61.69416957128534 106.17078748975916 C 0.0 **** -0.24
32362 H 52.68116617919469 62.448132443704026 105.97465552160713 H 0.0 **** 0.06
32363 H 53.95786899008229 61.93174313849097 107.10201696197373 H 0.0 **** 0.06
32364 H 54.16176261654408 61.6826375824288 105.35171367616232 H 0.0 **** 0.06
32365 H 52.97288975280952 60.71454603181418 106.2552466505 H 0.0 **** 0.06
32366 C 74.42040663084065 50.47050555600151 104.86319520197229 C 0.0 **** -0.24
32367 H 73.96062811289389 49.49370638667605 105.01242035106185 H 0.0 **** 0.06
32368 H 73.79667467487775 51.23927952367835 105.31931042347472 H 0.0 **** 0.06
32369 H 74.5180280485376 50.66674446105816 103.7952980025047 H 0.0 **** 0.06
32370 H 75.40741951433051 50.48193102447556 105.32653107385926 H 0.0 **** 0.06
32371 C 127.2982675940927 66.05281100111597 46.45653952318429 C 0.0 **** -0.24
32372 H 127.53037277108652 66.8587134687329 47.1527064978431 H 0.0 **** 0.06
32373 H 126.70284680911637 65.29455695118455 46.96500480443814 H 0.0 **** 0.06
32374 H 128.22444507531873 65.60645161701933 46.095850473375435 H 0.0 **** 0.06
32375 H 126.73429511301912 66.45261768613585 45.61334870661889 H 0.0 **** 0.06
32376 C 51.89319970123205 32.669743973959285 11.550986598956854 C 0.0 **** -0.24
32377 H 51.558433886960245 32.50801223544423 10.52621210208548 H 0.0 **** 0.06
32378 H 51.825775314945844 31.735501982594172 12.107364941756515 H 0.0 **** 0.06
32379 H 51.2605353217466 33.421291298641165 12.02369315040113 H 0.0 **** 0.06
32380 H 52.926475382927435 33.016888373004946 11.544646364570468 H 0.0 **** 0.06
32381 C 129.9492697857521 126.5416583439173 111.25461606057726 C 0.0 **** -0.24
32382 H 129.2628099446092 127.2274941572039 110.7571753814529 H 0.0 **** 0.06
32383 H 129.6818192713828 126.46258324286673 112.30895446607275 H 0.0 **** 0.06
32384 H 130.96804822279634 126.92030295839868 111.16576301479077 H 0.0 **** 0.06
32385 H 129.88383277142887 125.55991594857244 110.78708118200393 H 0.0 **** 0.06
32386 C 76.82612986869401 82.04828445841697 40.72085009593269 C 0.0 **** -0.24
32387 H 77.0330964076901 81.9329460184004 39.65669222253621 H 0.0 **** 0.06
32388 H 75.78633051788051 82.34720349840323 40.857823943060566 H 0.0 **** 0.06
32389 H 77.48222952998901 82.81323290364169 41.13695849872914 H 0.0 **** 0.06
32390 H 77.00246777937491 81.10151758301815 41.23027078098971 H 0.0 **** 0.06
32391 C 39.406382363220416 117.8323215397248 30.89697629097975 C 0.0 **** -0.24
32392 H 38.540346978238304 117.5116483232847 30.318356864195408 H 0.0 **** 0.06
32393 H 40.29574396238037 117.31312118097509 30.53797760573923 H 0.0 **** 0.06
32394 H 39.24853168817681 117.59640398283554 31.94917927242878 H 0.0 **** 0.06
32395 H 39.54182093801079 118.9084106213767 30.78211634314522 H 0.0 **** 0.06
32396 C 123.90578463805113 99.02368125819198 63.3931906670945 C 0.0 **** -0.24
32397 H 124.41336734616127 99.97883580593562 63.258596295079826 H 0.0 **** 0.06
32398 H 124.24539958869778 98.32149478249121 62.63136395971321 H 0.0 **** 0.06
32399 H 122.82910067869247 99.16819397287361 63.299933911414854 H 0.0 **** 0.06
32400 H 124.13481452727129 98.62599842990771 64.38200194911042 H 0.0 **** 0.06
32401 C 93.57106974651785 59.01707149259079 1.145316828952332 C 0.0 **** -0.24
32402 H 93.43074671238139 58.947047237638884 2.22407125932466 H 0.0 **** 0.06
32403 H 94.51639189975651 59.51811381479595 0.9346138987677364 H 0.0 **** 0.06
32404 H 92.75199022177108 59.587664404184494 0.7078931104164212 H 0.0 **** 0.06
32405 H 93.58612424861747 58.015677483600996 0.7146249651350445 H 0.0 **** 0.06
32406 C 97.50800756706838 19.370735808618058 66.42972535001334 C 0.0 **** -0.24
32407 H 97.29756762091796 19.54829068263291 67.48477766943921 H 0.0 **** 0.06
32408 H 98.37851466301237 18.72179631821608 66.33682233979675 H 0.0 **** 0.06
32409 H 97.70710195475556 20.320839023417754 65.93444528146706 H 0.0 **** 0.06
32410 H 96.6461626682559 18.892713958601668 65.96341689844581 H 0.0 **** 0.06
32411 C 109.91692935588301 131.7167925872879 8.422452471886004 C 0.0 **** -0.24
32412 H 109.41288393051477 131.91067246597595 9.369691038023134 H 0.0 **** 0.06
32413 H 110.10532736977564 132.6606696261613 7.911142024748102 H 0.0 **** 0.06
32414 H 109.28626086505733 131.0842426088563 7.798364492229155 H 0.0 **** 0.06
32415 H 110.86380104744947 131.2115885244221 8.612778278469136 H 0.0 **** 0.06
32416 C 115.28183140839144 48.33050168206864 50.43190565797305 C 0.0 **** -0.24
32417 H 114.79189488686771 47.558717304833124 49.83917545668122 H 0.0 **** 0.06
32418 H 115.92342389904425 47.86228842727829 51.178706506777885 H 0.0 **** 0.06
32419 H 114.52799578838872 48.93933060986966 50.93143871369537 H 0.0 **** 0.06
32420 H 115.88383703064079 48.962592798736125 49.778646796251934 H 0.0 **** 0.06
32421 C 25.475500150958517 71.70822666168966 43.17221505853405 C 0.0 **** -0.24
32422 H 26.06291044910067 72.08029806128211 42.33283667283115 H 0.0 **** 0.06
32423 H 26.140473663696163 71.26317875695581 43.912287788292105 H 0.0 **** 0.06
32424 H 24.771227793330247 70.95581891628893 42.81669134361783 H 0.0 **** 0.06
32425 H 24.927596593955535 72.53409379976543 43.62539405434113 H 0.0 **** 0.06
32426 C 67.39514579006152 12.17649996833785 17.074272123236653 C 0.0 **** -0.24
32427 H 67.08302727639642 11.497072013882928 16.279911474538267 H 0.0 **** 0.06
32428 H 68.08920708811752 11.661751062640406 17.738998804792402 H 0.0 **** 0.06
32429 H 66.52121577315597 12.500783099462353 17.639371977383007 H 0.0 **** 0.06
32430 H 67.88702981760014 13.04505173265602 16.63594460332206 H 0.0 **** 0.06
32431 C 57.34296717643534 136.87266495111163 107.16250668856566 C 0.0 **** -0.24
32432 H 57.666656979437846 136.05238794977686 107.803533704281 H 0.0 **** 0.06
32433 H 57.91301554477337 136.85340089246324 106.23384377937839 H 0.0 **** 0.06
32434 H 57.51178072988432 137.82064553218328 107.67330592793613 H 0.0 **** 0.06
32435 H 56.28075031599599 136.76299004884584 106.94117689957852 H 0.0 **** 0.06
32436 C 27.77396581893536 53.167022169792645 101.45272213022912 C 0.0 **** -0.24
32437 H 27.25944051346226 53.985087822406754 101.95727676583442 H 0.0 **** 0.06
32438 H 28.692504683893333 52.92899777978212 101.99016780825585 H 0.0 **** 0.06
32439 H 28.01558979943782 53.464364933838255 100.43210995589567 H 0.0 **** 0.06
32440 H 27.12742031592753 52.289707723266815 101.43241605121187 H 0.0 **** 0.06
32441 C 128.9578485744201 86.48607111419531 42.38514639115253 C 0.0 **** -0.24
32442 H 128.86893924025827 86.17684112345302 41.3442684195365 H 0.0 **** 0.06
32443 H 127.96341234787536 86.64723183780119 42.8015883240911 H 0.0 **** 0.06
32444 H 129.5294738293043 87.41321122570038 42.439734852231375 H 0.0 **** 0.06
32445 H 129.4697968990081 85.70903584985842 42.952584635888755 H 0.0 **** 0.06
32446 C 40.424513620195995 27.953365130294742 113.42946172914708 C 0.0 **** -0.24
32447 H 39.71096540098512 28.75406313346724 113.23488087267557 H 0.0 **** 0.06
32448 H 39.95911375962106 27.200109228349277 114.0664465435296 H 0.0 **** 0.06
32449 H 41.301549553287884 28.362915831319413 113.93068948132196 H 0.0 **** 0.06
32450 H 40.72432411361984 27.497092716502834 112.48608364424237 H 0.0 **** 0.06
32451 C 116.67913922870719 126.08673864578302 89.13134911619005 C 0.0 **** -0.24
32452 H 117.25173927631113 127.00893642041243 89.0263035555523 H 0.0 **** 0.06
32453 H 116.75467572020753 125.72903489812128 90.15861654380807 H 0.0 **** 0.06
32454 H 117.0785317476406 125.33228399702429 88.45313979187232 H 0.0 **** 0.06
32455 H 115.63427566214554 126.27793224716149 88.88850933948599 H 0.0 **** 0.06
32456 C 25.637035684051796 23.52917661761353 64.16020733907638 C 0.0 **** -0.24
32457 H 26.619800602311045 23.924324813679704 64.41903183585922 H 0.0 **** 0.06
32458 H 25.71385653512766 22.457880944401666 63.975794283081825 H 0.0 **** 0.06
32459 H 25.27059319486844 24.027764951323917 63.26299018217304 H 0.0 **** 0.06
32460 H 24.945423299904377 23.70754258738839 64.98293870654803 H 0.0 **** 0.06
32461 C 12.245186410791266 51.35923392279473 127.2518665977783 C 0.0 **** -0.24
32462 H 12.596258936515735 50.40508750010474 126.86097956735534 H 0.0 **** 0.06
32463 H 13.094113677587647 51.93470119236795 127.62213814415429 H 0.0 **** 0.06
32464 H 11.54317125539944 51.18214840650471 128.06631578342933 H 0.0 **** 0.06
32465 H 11.747458759636189 51.91636355484785 126.45776657329532 H 0.0 **** 0.06
32466 C 71.72842271892725 123.32518158922107 35.03923731351779 C 0.0 **** -0.24
32467 H 72.08691023552274 123.68639658187783 34.07572527089832 H 0.0 **** 0.06
32468 H 72.52347328683305 122.76790744863996 35.53667402435002 H 0.0 **** 0.06
32469 H 70.8693785726866 122.67311901901769 34.88542391720682 H 0.0 **** 0.06
32470 H 71.43632639356733 124.17299188808926 35.65873266075482 H 0.0 **** 0.06
32471 C 24.59139156440243 66.18819801507266 40.41921319336501 C 0.0 **** -0.24
32472 H 25.378909907640583 65.4805286194686 40.679607085615174 H 0.0 **** 0.06
32473 H 23.68074485946029 65.93235818231216 40.960173068596816 H 0.0 **** 0.06
32474 H 24.402917272858694 66.14140362420821 39.34668310751934 H 0.0 **** 0.06
32475 H 24.90571178183297 67.19622452325578 40.68919357734666 H 0.0 **** 0.06
32476 C 89.94485223483885 76.39613963519307 122.9321904078082 C 0.0 **** -0.24
32477 H 89.86733119911356 77.44553045683165 123.21808111115939 H 0.0 **** 0.06
32478 H 89.03367466577349 76.09310255446144 122.41388244100295 H 0.0 **** 0.06
32479 H 90.07525244920524 75.78553168333119 123.82500994316922 H 0.0 **** 0.06
32480 H 90.8016682179277 76.26203023544713 122.2714346811153 H 0.0 **** 0.06
32481 C 105.28097790682341 111.74023431063839 105.223444036266 C 0.0 **** -0.24
32482 H 106.21353326236243 111.43312458386862 104.75048720302368 H 0.0 **** 0.06
32483 H 104.70622039790231 110.85599130706441 105.50109892103504 H 0.0 **** 0.06
32484 H 104.70282151049571 112.34580702627883 104.5257084730859 H 0.0 **** 0.06
32485 H 105.50222024238334 112.32575613451849 106.11609128337267 H 0.0 **** 0.06
32486 C 110.18953365621721 9.49015007043883 121.93205826474548 C 0.0 **** -0.24
32487 H 111.00200271682641 10.01571688798731 122.43301990997998 H 0.0 **** 0.06
32488 H 110.16737947078175 9.77348017546069 120.88008617694658 H 0.0 **** 0.06
32489 H 109.24187489322084 9.754206862108276 122.4015025577715 H 0.0 **** 0.06
32490 H 110.34837043516416 8.414344753011676 122.01553236716654 H 0.0 **** 0.06
32491 C 39.66922932124231 22.378832630036186 107.83908309618448 C 0.0 **** -0.24
32492 H 39.6903877545289 21.771551819108197 106.93455815633234 H 0.0 **** 0.06
32493 H 40.46211620386603 22.053414050464454 108.51405294456879 H 0.0 **** 0.06
32494 H 38.70338498737874 22.264129420509732 108.33161530973004 H 0.0 **** 0.06
32495 H 39.82140196999171 23.426190244757663 107.57779668856816 H 0.0 **** 0.06
32496 C 72.72335861634772 72.20089544781735 10.450185780928138 C 0.0 **** -0.24
32497 H 72.84180156755785 71.1471574188476 10.19570485010425 H 0.0 **** 0.06
32498 H 72.37409627516425 72.74847390778456 9.574074618425811 H 0.0 **** 0.06
32499 H 73.6819262197135 72.60606040539989 10.77366460212204 H 0.0 **** 0.06
32500 H 71.99608876737996 72.29996835815547 11.255045467129463 H 0.0 **** 0.06
32501 C 132.64574360428117 65.48087591407007 85.52931427757926 C 0.0 **** -0.24
32502 H 133.72973599842106 65.42361520054793 85.6219247846754 H 0.0 **** 0.06
32503 H 132.2702171094578 66.2954263859637 86.14986202861132 H 0.0 **** 0.06
32504 H 132.20238116106725 64.54027170783563 85.85689565191936 H 0.0 **** 0.06
32505 H 132.37923243867954 65.66432509082294 84.48859181443282 H 0.0 **** 0.06
32506 C 90.10976545644931 118.90588155801433 4.808620465504532 C 0.0 **** -0.24
32507 H 89.96847018298315 119.98532356057052 4.7510645119202195 H 0.0 **** 0.06
32508 H 89.89122139697402 118.56502963737461 5.821351225331966 H 0.0 **** 0.06
32509 H 91.1410893912292 118.66090397424145 4.557318005703905 H 0.0 **** 0.06
32510 H 89.43708804356515 118.41399916186268 4.105512436167373 H 0.0 **** 0.06
32511 C 121.67309800940473 115.99515600505975 108.53238563745114 C 0.0 **** -0.24
32512 H 122.64357229675932 115.5119764264474 108.41765015812435 H 0.0 **** 0.06
32513 H 121.10290150880962 115.48385233833636 109.30805475396373 H 0.0 **** 0.06
32514 H 121.12926987084126 115.94636039000233 107.58868598546543 H 0.0 **** 0.06
32515 H 121.81798074390804 117.03799411831994 108.81497674941939 H 0.0 **** 0.06
32516 C 3.2277161466878397 48.57479038997289 39.32159083428833 C 0.0 **** -0.24
32517 H 3.405223498389546 49.59283177993268 39.66914220946056 H 0.0 **** 0.06
32518 H 2.170721827624959 48.33342260696975 39.43137990022243 H 0.0 **** 0.06
32519 H 3.824074697214485 47.879764370799336 39.912435449913 H 0.0 **** 0.06
32520 H 3.5119215982587093 48.49571664203009 38.27191721848259 H 0.0 **** 0.06
32521 C 77.788331913187 124.1484516847722 57.03193655077064 C 0.0 **** -0.24
32522 H 77.39385527688673 124.03319926574167 58.0410143873338 H 0.0 **** 0.06
32523 H 77.88177373305518 123.16878514967902 56.563341665867995 H 0.0 **** 0.06
32524 H 78.76836046218642 124.6236055592116 57.07790296909508 H 0.0 **** 0.06
32525 H 77.11079657098779 124.76991150757146 56.445521459667304 H 0.0 **** 0.06
32526 C 119.72380035358155 129.8011017609058 51.12846352088491 C 0.0 **** -0.24
32527 H 119.33104488742666 130.76160817893776 50.79601413857776 H 0.0 **** 0.06
32528 H 118.92353752443789 129.06097584347322 51.128151537980045 H 0.0 **** 0.06
32529 H 120.12451774088463 129.90294710131047 52.13737640054404 H 0.0 **** 0.06
32530 H 120.517307376212 129.47982219216 50.45393991553604 H 0.0 **** 0.06
32531 C 132.44714570744242 13.782896033605297 70.21267825711509 C 0.0 **** -0.24
32532 H 133.18171534123695 13.71789215212251 71.01522794476888 H 0.0 **** 0.06
32533 H 131.46884661488997 13.484162562920382 70.591101731971 H 0.0 **** 0.06
32534 H 132.74000710520662 13.120051824426689 69.39787652602283 H 0.0 **** 0.06
32535 H 132.39826847055346 14.808624489330413 69.84696222000719 H 0.0 **** 0.06
32536 C 76.060312222415 92.05011747808918 130.27461419340872 C 0.0 **** -0.24
32537 H 76.43946268544875 91.4395602065735 131.09442748363787 H 0.0 **** 0.06
32538 H 76.40487653745589 93.07771258447282 130.39752826877242 H 0.0 **** 0.06
32539 H 74.97051148911811 92.02953657637576 130.28092697986037 H 0.0 **** 0.06
32540 H 76.42714558117535 91.65496012983567 129.32751124169297 H 0.0 **** 0.06
32541 C 25.64124241502317 38.96168706508206 24.33437212182224 C 0.0 **** -0.24
32542 H 25.954312973786188 38.80694779430797 25.366525021270093 H 0.0 **** 0.06
32543 H 25.830538527148562 38.05655168013067 23.757661657246956 H 0.0 **** 0.06
32544 H 26.20154409564109 39.79105843123986 23.904620856090446 H 0.0 **** 0.06
32545 H 24.57506948143081 39.19209315650389 24.309523009347828 H 0.0 **** 0.06
32546 C 45.57698164742368 26.651425521319766 124.44157118681461 C 0.0 **** -0.24
32547 H 45.19291079365374 26.977533825997796 125.4082852232403 H 0.0 **** 0.06
32548 H 45.566843567761964 25.562490926454927 124.3955415816508 H 0.0 **** 0.06
32549 H 46.597451765939866 27.01196585998491 124.31491247100833 H 0.0 **** 0.06
32550 H 44.94799049909341 27.055568606014162 123.64785990237972 H 0.0 **** 0.06
32551 C 53.393264742581664 122.64102273720343 28.44896520781682 C 0.0 **** -0.24
32552 H 52.92926166658522 123.33854432478475 29.146954380287973 H 0.0 **** 0.06
32553 H 53.82827374271362 121.8085662890642 29.002928689889586 H 0.0 **** 0.06
32554 H 54.17556120137468 123.15380765925667 27.889261767740123 H 0.0 **** 0.06
32555 H 52.63970501250921 122.26418396571188 27.757670539141593 H 0.0 **** 0.06
32556 C 115.29904246235387 3.957726895779416 36.92142036746125 C 0.0 **** -0.24
32557 H 114.62726655813213 4.36042180439631 37.6798068321398 H 0.0 **** 0.06
32558 H 116.30774509079251 3.8893159876634797 37.32942409445562 H 0.0 **** 0.06
32559 H 115.30153460547649 4.616801636758112 36.05342997434798 H 0.0 **** 0.06
32560 H 114.9585350977199 2.966188094464229 36.62372995114697 H 0.0 **** 0.06
32561 C 51.796140793237086 136.65348300662447 117.86564693018752 C 0.0 **** -0.24
32562 H 52.62070585692756 137.36181802725622 117.93957913044716 H 0.0 **** 0.06
32563 H 51.56750304741911 136.2578486563319 118.85527024559039 H 0.0 **** 0.06
32564 H 52.07750242334568 135.83577759783435 117.20268876927116 H 0.0 **** 0.06
32565 H 50.91712917120127 137.15989814832804 117.46525787450335 H 0.0 **** 0.06
32566 C 79.18094414834968 115.86289650052606 89.11520613650701 C 0.0 **** -0.24
32567 H 78.80902237559508 115.8753900856633 88.0909512156403 H 0.0 **** 0.06
32568 H 78.33776435280078 115.84914778303693 89.80651786868867 H 0.0 **** 0.06
32569 H 79.78327869397867 116.75311974651552 89.29415778752143 H 0.0 **** 0.06
32570 H 79.7915917887023 114.97361637312048 89.26855650515596 H 0.0 **** 0.06
32571 C 78.9956948771204 70.08636329478695 61.51828867087066 C 0.0 **** -0.24
32572 H 78.82584815924542 69.06738573671235 61.17063814694909 H 0.0 **** 0.06
32573 H 78.03989416685198 70.6029500754202 61.611734969248516 H 0.0 **** 0.06
32574 H 79.62645853184927 70.61402197264978 60.80168929037825 H 0.0 **** 0.06
32575 H 79.49271158215129 70.06130845908324 62.48845553686712 H 0.0 **** 0.06
32576 C 35.128427946980594 5.196707401920946 47.33686343565381 C 0.0 **** -0.24
32577 H 34.43426853893692 4.46148708109007 46.93057803253569 H 0.0 **** 0.06
32578 H 36.075498357692965 5.137735138979451 46.79968468335096 H 0.0 **** 0.06
32579 H 35.29700164822475 4.991630920764862 48.39430167560337 H 0.0 **** 0.06
32580 H 34.70793111942251 6.195172207885946 47.22350364789442 H 0.0 **** 0.06
32581 C 12.400645420704038 70.83957553753487 120.29410318062705 C 0.0 **** -0.24
32582 H 12.874425135192368 70.60525138211749 119.34071289085404 H 0.0 **** 0.06
32583 H 12.909968807279625 70.30205961283154 121.09463514788533 H 0.0 **** 0.06
32584 H 11.353521361772437 70.53798260638966 120.26316802277518 H 0.0 **** 0.06
32585 H 12.465244052766352 71.91228097937935 120.47752655072833 H 0.0 **** 0.06
32586 C 128.9283936861442 123.24548845829328 73.03000074980176 C 0.0 **** -0.24
32587 H 128.18647213886908 122.5297445105365 72.67488511348228 H 0.0 **** 0.06
32588 H 129.60985663659454 122.74917775055165 73.72059177826418 H 0.0 **** 0.06
32589 H 128.424579791207 124.06514717882281 73.54197456584495 H 0.0 **** 0.06
32590 H 129.49034577699183 123.63748549096198 72.18187560180246 H 0.0 **** 0.06
32591 C 56.49891631801336 56.05181738138752 104.8618089606076 C 0.0 **** -0.24
32592 H 56.81034419982228 57.044855431114044 105.18691386773848 H 0.0 **** 0.06
32593 H 56.45404936879345 55.385638171975074 105.72445915991217 H 0.0 **** 0.06
32594 H 57.21730826223961 55.663985679507974 104.13948517291146 H 0.0 **** 0.06
32595 H 55.51418680830412 56.11341372876282 104.3985134331296 H 0.0 **** 0.06
32596 C 28.680929709097484 109.97748827400719 51.917563336414005 C 0.0 **** -0.24
32597 H 27.715474330270467 109.77008017761509 52.38064100008299 H 0.0 **** 0.06
32598 H 29.30679193479949 110.5316053824267 52.61796880665183 H 0.0 **** 0.06
32599 H 28.531053552278593 110.57026333431358 51.0159764784045 H 0.0 **** 0.06
32600 H 29.16751622358214 109.03714601710152 51.65882203914788 H 0.0 **** 0.06
32601 C 119.03031831467928 60.781969410365065 98.37745849441151 C 0.0 **** -0.24
32602 H 118.14610831014292 60.690527115501794 99.008952023109 H 0.0 **** 0.06
32603 H 118.73345014577461 60.74200522255005 97.3291602345939 H 0.0 **** 0.06
32604 H 119.71604421686064 59.962068980995596 98.59248491655293 H 0.0 **** 0.06
32605 H 119.52512450647663 61.73205686353646 98.57970027934707 H 0.0 **** 0.06
32606 C 43.944044694284685 39.90213573245518 34.124837410960694 C 0.0 **** -0.24
32607 H 44.08200200249442 40.300180541090896 35.1300399597459 H 0.0 **** 0.06
32608 H 43.114685623200614 40.41809531974536 33.640624321119674 H 0.0 **** 0.06
32609 H 43.72441992598456 38.835304877987 34.18443636196949 H 0.0 **** 0.06
32610 H 44.85480139625071 40.05372978019531 33.54609523705594 H 0.0 **** 0.06
32611 C 54.446817248184914 55.513068717326775 117.66933494900647 C 0.0 **** -0.24
32612 H 55.44039084949938 55.20059483335514 117.98945460710283 H 0.0 **** 0.06
32613 H 54.23468295183454 56.50805760547303 118.06295570536975 H 0.0 **** 0.06
32614 H 53.70498752221795 54.80878052473244 118.04503939770552 H 0.0 **** 0.06
32615 H 54.40709761123691 55.53691488527318 116.58072127467261 H 0.0 **** 0.06
32616 C 119.85240411893392 66.97741020738204 34.13063431652358 C 0.0 **** -0.24
32617 H 119.87445635870273 68.01835262018699 33.806625525378195 H 0.0 **** 0.06
32618 H 120.77581732838325 66.74325082099281 34.66193231850366 H 0.0 **** 0.06
32619 H 119.75848445117117 66.3279614577926 33.26054210345535 H 0.0 **** 0.06
32620 H 119.00259253782895 66.82225561771197 34.79455173796191 H 0.0 **** 0.06
32621 C 104.85618448333582 14.245693697976883 0.3401001827220398 C 0.0 **** -0.24
32622 H 104.29650931214681 13.321992722410215 0.4861387314818444 H 0.0 **** 0.06
32623 H 105.70847826513955 14.266264523123986 1.0195685272095147 H 0.0 **** 0.06
32624 H 104.20792758713748 15.099063378532996 0.5431477657253936 H 0.0 **** 0.06
32625 H 105.20978792371812 14.296528264489723 -0.6892945312761185 H 0.0 **** 0.06
32626 C 28.674236101861425 68.22139612079397 25.262655969870536 C 0.0 **** -0.24
32627 H 29.026435386033768 69.23216100998769 25.052317790628535 H 0.0 **** 0.06
32628 H 29.256181687005665 67.79745397225304 26.080592654637996 H 0.0 **** 0.06
32629 H 28.79267834803477 67.60399533734716 24.37235896512692 H 0.0 **** 0.06
32630 H 27.621006293193034 68.2552321495841 25.543949807125614 H 0.0 **** 0.06
32631 C 78.44764742356259 113.00954810834955 66.87531827262585 C 0.0 **** -0.24
32632 H 78.13627793098411 113.56811882225963 65.99273578395496 H 0.0 **** 0.06
32633 H 77.58331899786897 112.827783905318 67.514069561474 H 0.0 **** 0.06
32634 H 79.19213810569612 113.58558412666395 67.42652628747366 H 0.0 **** 0.06
32635 H 78.88040680720196 112.05742957372797 66.56819993203958 H 0.0 **** 0.06
32636 C 0.047509662250377005 113.94885685668464 127.64140830948688 C 0.0 **** -0.24
32637 H -0.7514640516291706 113.27672165557266 127.95634384849079 H 0.0 **** 0.06
32638 H 0.873412297555376 113.36394150040016 127.23452502981687 H 0.0 **** 0.06
32639 H 0.39722821053589996 114.52439926843684 128.4984753615546 H 0.0 **** 0.06
32640 H -0.32991823372708495 114.62734569473096 126.87681357404436 H 0.0 **** 0.06
32641 C 62.052846533297725 91.0424570242559 119.51791860815831 C 0.0 **** -0.24
32642 H 62.858365343344715 91.27189990943545 118.81959238055907 H 0.0 **** 0.06
32643 H 62.47600064201548 90.68577406066633 120.45699204905617 H 0.0 **** 0.06
32644 H 61.4126725480799 90.26966644464177 119.09144576277328 H 0.0 **** 0.06
32645 H 61.46423122399456 91.94153800477487 119.70138927962444 H 0.0 **** 0.06
32646 C 3.9945629434793943 24.483678258065098 1.8400116268454951 C 0.0 **** -0.24
32647 H 4.008224927968399 23.414644851251346 2.055237193520952 H 0.0 **** 0.06
32648 H 3.083878627163756 24.923789678722564 2.246228407792529 H 0.0 **** 0.06
32649 H 4.02374482415695 24.637119407617725 0.7618111639708047 H 0.0 **** 0.06
32650 H 4.863245791966079 24.956575342603124 2.298040572183737 H 0.0 **** 0.06
32651 C 61.064733215700855 8.227235676239445 92.1935493733039 C 0.0 **** -0.24
32652 H 61.460936078119715 7.599720873370671 91.39494337198934 H 0.0 **** 0.06
32653 H 59.99316856434375 8.36881022370136 92.045958727126 H 0.0 **** 0.06
32654 H 61.56571531262583 9.194991385086666 92.17838781926073 H 0.0 **** 0.06
32655 H 61.23900366778852 7.742425191277192 93.15477240849503 H 0.0 **** 0.06
32656 C 4.508539834214961 14.555580563324156 57.884323277899455 C 0.0 **** -0.24
32657 H 3.461064219552128 14.669837836750531 58.162309154798436 H 0.0 **** 0.06
32658 H 5.124977401953682 14.552750271272544 58.78361122127109 H 0.0 **** 0.06
32659 H 4.806074644988907 15.385360882531273 57.24188666767276 H 0.0 **** 0.06
32660 H 4.641907053910607 13.615201552869138 57.34894248590547 H 0.0 **** 0.06
32661 C 112.9240071500819 87.8087256111045 84.34898782726032 C 0.0 **** -0.24
32662 H 112.68222520062625 86.9390513105912 84.96104928041893 H 0.0 **** 0.06
32663 H 113.09155636771649 87.49327768417527 83.31948508469134 H 0.0 **** 0.06
32664 H 113.82539827471174 88.28463685631542 84.7345725378861 H 0.0 **** 0.06
32665 H 112.09667998026231 88.51757167665158 84.38220029793862 H 0.0 **** 0.06
32666 C 86.7100269429661 136.31546191159623 44.04319159136051 C 0.0 **** -0.24
32667 H 86.8400667286662 137.28752815097357 44.51893411062832 H 0.0 **** 0.06
32668 H 86.54010694435947 135.55726527105134 44.808560245066644 H 0.0 **** 0.06
32669 H 87.60748217349672 136.0650698535959 43.47665912654651 H 0.0 **** 0.06
32670 H 85.85351427409378 136.3510870700585 43.370364025200956 H 0.0 **** 0.06
32671 C 124.06078743818472 122.38745755127286 19.79440624197474 C 0.0 **** -0.24
32672 H 124.04204038282715 122.34247728206344 20.88354783442034 H 0.0 **** 0.06
32673 H 124.96226517572711 121.89695948149523 19.4263714313839 H 0.0 **** 0.06
32674 H 124.05688981441106 123.42920402250309 19.473594516444166 H 0.0 **** 0.06
32675 H 123.18171781530465 121.88111832497634 19.395080220858517 H 0.0 **** 0.06
32676 C 21.009502752862502 124.35349497858903 14.238975029540711 C 0.0 **** -0.24
32677 H 21.95990381282094 124.05978685647432 13.791576437951306 H 0.0 **** 0.06
32678 H 20.191898425749415 124.0568241057282 13.581585765285553 H 0.0 **** 0.06
32679 H 20.991531762111926 125.43465045891065 14.37536021814303 H 0.0 **** 0.06
32680 H 20.896118302102828 123.86253242287654 15.204951088475596 H 0.0 **** 0.06
32681 C 2.5887382060935806 4.56532010250271 19.662827853060776 C 0.0 **** -0.24
32682 H 3.1021789743768977 5.5203065846147865 19.55861469097887 H 0.0 **** 0.06
32683 H 3.2562567146460424 3.843377851248306 20.135536629456567 H 0.0 **** 0.06
32684 H 2.297246102342058 4.199748494416781 18.67877258916016 H 0.0 **** 0.06
32685 H 1.6994119285225224 4.696651609461128 20.280271719854795 H 0.0 **** 0.06
32686 C 72.6415311889752 67.7268900204066 76.26005198771131 C 0.0 **** -0.24
32687 H 71.90048485686512 68.2461259999138 76.86793388507897 H 0.0 **** 0.06
32688 H 72.84720710964551 66.74885576190454 76.6965145000346 H 0.0 **** 0.06
32689 H 73.56063244156267 68.31263903955386 76.22965351751566 H 0.0 **** 0.06
32690 H 72.25757531903477 67.60041033629413 75.24828037569412 H 0.0 **** 0.06
32691 C 85.62998221549805 51.95489872905324 12.870945405527067 C 0.0 **** -0.24
32692 H 85.21252888505633 52.95860387678054 12.955967714787334 H 0.0 **** 0.06
32693 H 85.07828961557976 51.2764940204534 13.52310449050907 H 0.0 **** 0.06
32694 H 86.67879321197513 51.97216307326502 13.166491471260713 H 0.0 **** 0.06
32695 H 85.54797975418175 51.614476724717136 11.839190360913847 H 0.0 **** 0.06
32696 C 104.19439066567713 99.6959708444436 4.529770159348573 C 0.0 **** -0.24
32697 H 105.14081020796459 99.30677345646552 4.152314761893479 H 0.0 **** 0.06
32698 H 103.38549804062563 99.38715348168785 3.868244209828333 H 0.0 **** 0.06
32699 H 104.23891932717393 100.78477913008498 4.568277527966131 H 0.0 **** 0.06
32700 H 104.01519643526211 99.30476104938964 5.5310440317090865 H 0.0 **** 0.06
32701 C 1.4272353746738808 95.74915004299993 15.939643813944485 C 0.0 **** -0.24
32702 H 0.7125451440628225 96.57270618519883 15.946518535451602 H 0.0 **** 0.06
32703 H 2.4368437907301796 96.14268621191934 16.05655908277737 H 0.0 **** 0.06
32704 H 1.3533590403020135 95.21175169733665 14.994099855856305 H 0.0 **** 0.06
32705 H 1.2046932997147834 95.06899452820409 16.762990431130277 H 0.0 **** 0.06
32706 C 26.001401325132285 15.941234342104565 25.89522304449474 C 0.0 **** -0.24
32707 H 25.805831609460704 15.240847267306378 26.708138516115355 H 0.0 **** 0.06
32708 H 26.099143945529924 16.94830458169855 26.299514934748117 H 0.0 **** 0.06
32709 H 25.17429623582933 15.913100052223967 25.185924313323994 H 0.0 **** 0.06
32710 H 26.92402301536029 15.66118149441374 25.388497671528 H 0.0 **** 0.06
32711 C 47.20299318595039 97.03046629511306 77.12442531510254 C 0.0 **** -0.24
32712 H 46.14345138295948 97.0497562831195 77.38029861003001 H 0.0 **** 0.06
32713 H 47.7608600145424 96.54373941478127 77.9245238186725 H 0.0 **** 0.06
32714 H 47.5647065930915 98.0504932518279 76.99670508404905 H 0.0 **** 0.06
32715 H 47.341208705806366 96.47654872836068 76.19573867561962 H 0.0 **** 0.06
32716 C 71.86376716187328 53.6413786033541 130.84893423291663 C 0.0 **** -0.24
32717 H 71.0839698420948 52.890099553753544 130.97504531772387 H 0.0 **** 0.06
32718 H 72.76020493233514 53.32760684071491 131.38393299422535 H 0.0 **** 0.06
32719 H 71.51704006447363 54.59409893196761 131.24769895291502 H 0.0 **** 0.06
32720 H 72.09212599824133 53.752300131009946 129.78888719591413 H 0.0 **** 0.06
32721 C 112.95259285761165 135.63532276769246 99.64041482260069 C 0.0 **** -0.24
32722 H 113.5405802694807 136.2693874970883 100.30457204791551 H 0.0 **** 0.06
32723 H 112.14961282667252 136.22306233843187 99.19569319772361 H 0.0 **** 0.06
32724 H 112.52597534644372 134.8101121034042 100.21053491202923 H 0.0 **** 0.06
32725 H 113.59403209263462 135.24062997272307 98.85317387157534 H 0.0 **** 0.06
32726 C 17.474253416883414 119.23461414554936 26.486046634842474 C 0.0 **** -0.24
32727 H 17.578440835501283 118.72485991252313 25.527773340425156 H 0.0 **** 0.06
32728 H 16.891660786338548 120.14681436919085 26.350297872972703 H 0.0 **** 0.06
32729 H 18.461757025446445 119.48792203369752 26.871638121260716 H 0.0 **** 0.06
32730 H 16.964713164887655 118.58003679728785 27.19237463059885 H 0.0 **** 0.06
32731 C 13.181166181284254 90.1974381216906 78.37360211729185 C 0.0 **** -0.24
32732 H 12.678831160629528 89.53384363788155 79.07784211573238 H 0.0 **** 0.06
32733 H 13.979647247340097 89.65378514404131 77.86944098023213 H 0.0 **** 0.06
32734 H 13.602290117872712 91.04610695739899 78.91296648162597 H 0.0 **** 0.06
32735 H 12.461712955713125 90.55507532599756 77.63704815134065 H 0.0 **** 0.06
32736 C 43.46324047461371 91.94992194550564 56.12831721794652 C 0.0 **** -0.24
32737 H 43.68272248472719 91.4741005480481 55.17187497447719 H 0.0 **** 0.06
32738 H 42.82036544407006 91.29819587368029 56.719817746471875 H 0.0 **** 0.06
32739 H 42.956527391473784 92.89910184924463 55.952489326628495 H 0.0 **** 0.06
32740 H 44.39419906794768 92.12966529216922 56.665713230224895 H 0.0 **** 0.06
32741 C 105.47058529185722 48.19793054564799 30.01210270893951 C 0.0 **** -0.24
32742 H 105.92675542536438 48.25839468084892 31.00072903221811 H 0.0 **** 0.06
32743 H 104.3984893336036 48.37739540372485 30.095832669489738 H 0.0 **** 0.06
32744 H 105.64186768052087 47.206330093215584 29.592625689794474 H 0.0 **** 0.06
32745 H 105.91490167029383 48.950377933143486 29.360359692995523 H 0.0 **** 0.06
32746 C 30.166883990729048 52.639167459362994 61.15277508797057 C 0.0 **** -0.24
32747 H 30.74264329372761 53.20105881892209 60.41752181614389 H 0.0 **** 0.06
32748 H 30.539221095588175 52.86271415994308 62.15266159541363 H 0.0 **** 0.06
32749 H 30.26930464357008 51.5720754092421 60.95546916203173 H 0.0 **** 0.06
32750 H 29.116473699669882 52.9225305207555 61.08400975642684 H 0.0 **** 0.06
32751 C 101.48605502187866 34.505702422666026 102.56068026093392 C 0.0 **** -0.24
32752 H 101.39079393466773 34.747400657148965 103.6196185900566 H 0.0 **** 0.06
32753 H 102.42387486159726 33.97674401272378 102.39213948723648 H 0.0 **** 0.06
32754 H 101.47668233156179 35.42473129746143 101.9762129321046 H 0.0 **** 0.06
32755 H 100.65164738238349 33.8730376420032 102.25667488893599 H 0.0 **** 0.06
32756 C 40.58195141126519 70.17389838870827 67.48678086473174 C 0.0 **** -0.24
32757 H 41.572562701692306 69.89949192548232 67.85124003674014 H 0.0 **** 0.06
32758 H 40.680765593116654 70.76828280194343 66.57881392761823 H 0.0 **** 0.06
32759 H 40.0633100679317 70.75638747813025 68.24857919991106 H 0.0 **** 0.06
32760 H 40.01229519702291 69.26981607694466 67.26954809210864 H 0.0 **** 0.06
32761 C 123.6256012513432 73.17840556630586 118.21969340479211 C 0.0 **** -0.24
32762 H 123.99661432074177 74.13976471677904 118.5745355285774 H 0.0 **** 0.06
32763 H 124.00547257994023 72.38280807559988 118.86169537559931 H 0.0 **** 0.06
32764 H 123.96572415672411 73.01338359537806 117.19649190874381 H 0.0 **** 0.06
32765 H 122.53624272503576 73.17745254552369 118.24455539480263 H 0.0 **** 0.06
32766 C 77.73200091341988 80.13284019426337 91.16928699269067 C 0.0 **** -0.24
32767 H 78.69322195587955 79.97741362568811 90.68126172046506 H 0.0 **** 0.06
32768 H 77.08980477919266 79.26973139643495 90.9898309855819 H 0.0 **** 0.06
32769 H 77.25877411344896 81.02745233182779 90.76460368662448 H 0.0 **** 0.06
32770 H 77.88509444229396 80.25589626932947 92.24159182354946 H 0.0 **** 0.06
32771 C 6.271443553555514 126.12967543545108 15.556425210347413 C 0.0 **** -0.24
32772 H 5.976218910232319 126.73055562850004 14.69600119517088 H 0.0 **** 0.06
32773 H 6.486251009541036 125.11052478653028 15.231354627631589 H 0.0 **** 0.06
32774 H 5.459878639929855 126.11575595102312 16.28416329245087 H 0.0 **** 0.06
32775 H 7.162015723502577 126.56116602885368 16.01230468417495 H 0.0 **** 0.06
32776 C 90.23580386745111 86.702345925775 16.27869476569107 C 0.0 **** -0.24
32777 H 89.36444351750454 86.23157519948899 15.823744092456266 H 0.0 **** 0.06
32778 H 89.93385714151985 87.22551839633344 17.186277723389345 H 0.0 **** 0.06
32779 H 90.67110933441685 87.41452362923684 15.576919744242915 H 0.0 **** 0.06
32780 H 90.97361306833625 85.93912059284902 16.526068439655596 H 0.0 **** 0.06
32781 C 75.01770662902939 86.06499856018928 76.92829961906413 C 0.0 **** -0.24
32782 H 74.31660564092799 86.33064767452333 76.13824080411231 H 0.0 **** 0.06
32783 H 74.63032806387118 85.21199439771084 77.48631382335348 H 0.0 **** 0.06
32784 H 75.14377392507727 86.91260893475464 77.60242333397417 H 0.0 **** 0.06
32785 H 75.98042134521123 85.8048129774075 76.48843498679182 H 0.0 **** 0.06
32786 C 130.8678451700309 136.5594022131625 79.64816824578637 C 0.0 **** -0.24
32787 H 131.31101301082995 136.4175339071539 78.66273905656723 H 0.0 **** 0.06
32788 H 130.81689141248228 137.6246507368409 79.87309790568294 H 0.0 **** 0.06
32789 H 131.4807102728746 136.05780813810338 80.39677881810111 H 0.0 **** 0.06
32790 H 129.86350908020344 136.13669052148362 79.65816210422346 H 0.0 **** 0.06
32791 C 9.712752238874486 44.232300173418935 54.664470435249314 C 0.0 **** -0.24
32792 H 10.527044738051131 44.94805210185734 54.557088364914534 H 0.0 **** 0.06
32793 H 9.00040812949652 44.60137860650042 55.40286604601886 H 0.0 **** 0.06
32794 H 10.113544607455026 43.273311415285775 54.99398998976994 H 0.0 **** 0.06
32795 H 9.21015192758415 44.10764591034996 53.705540675246766 H 0.0 **** 0.06
32796 C 2.2514335644321974 16.979281957428327 13.375455329627986 C 0.0 **** -0.24
32797 H 1.317859240117727 16.493445242008818 13.660505787480503 H 0.0 **** 0.06
32798 H 2.692167685282449 16.451116559679804 12.530056133957686 H 0.0 **** 0.06
32799 H 2.9433040275729816 16.95957445784512 14.217462417524523 H 0.0 **** 0.06
32800 H 2.05140424167147 18.012948637475944 13.093805702145286 H 0.0 **** 0.06
32801 C 5.629899893961664 116.2539141783974 16.6920811192536 C 0.0 **** -0.24
32802 H 5.853376404986875 117.32056892565114 16.684736420129184 H 0.0 **** 0.06
32803 H 6.485396927701061 115.70044539524099 16.303604298571543 H 0.0 **** 0.06
32804 H 4.758437937507608 116.0607368739254 16.06694943402482 H 0.0 **** 0.06
32805 H 5.422392370278999 115.93218166710187 17.71320301909583 H 0.0 **** 0.06
32806 C 87.70063493015283 2.960434040721811 120.95101549964744 C 0.0 **** -0.24
32807 H 88.51660116805192 3.13949589785274 121.65141540447644 H 0.0 **** 0.06
32808 H 87.86572308793086 3.5421761162910173 120.04491668925061 H 0.0 **** 0.06
32809 H 86.75687190155932 3.260384229734072 121.40821826160294 H 0.0 **** 0.06
32810 H 87.66194342966193 1.900229948791278 120.70210731481069 H 0.0 **** 0.06
32811 C 43.39962841818817 55.38165380873616 58.41670742308452 C 0.0 **** -0.24
32812 H 43.1995931552304 56.450885454847324 58.4745915635728 H 0.0 **** 0.06
32813 H 44.391700499634446 55.219216625445796 57.99362081525308 H 0.0 **** 0.06
32814 H 42.65197824787933 54.905352879109614 57.78258306431471 H 0.0 **** 0.06
32815 H 43.35546004062996 54.94986764847381 59.41656487702494 H 0.0 **** 0.06
32816 C 37.49577005177383 121.24555559743243 39.084316315965964 C 0.0 **** -0.24
32817 H 38.10806149151452 122.00676609873892 38.6010960603943 H 0.0 **** 0.06
32818 H 37.972158335601904 120.2717203936553 38.97235539234265 H 0.0 **** 0.06
32819 H 36.50960266849353 121.2236436719366 38.620318653598076 H 0.0 **** 0.06
32820 H 37.39332536499711 121.4805164720326 40.14439819913491 H 0.0 **** 0.06
32821 C 103.2429184136052 99.45958412126059 97.01921645582604 C 0.0 **** -0.24
32822 H 102.83101071006996 98.45025664082434 97.01602936090359 H 0.0 **** 0.06
32823 H 102.5666642160466 100.12911260248737 96.4864895140908 H 0.0 **** 0.06
32824 H 104.21458338142486 99.45623560019897 96.52622457247472 H 0.0 **** 0.06
32825 H 103.35726397400981 99.80245705104947 98.04757792512493 H 0.0 **** 0.06
32826 C 135.93538451608765 34.735286309621486 126.92993562595214 C 0.0 **** -0.24
32827 H 136.39577187520177 34.08617655588623 126.1852423614741 H 0.0 **** 0.06
32828 H 135.09022212975452 34.21965862885011 127.38780763526373 H 0.0 **** 0.06
32829 H 135.586015967773 35.64858815549961 126.44853515919796 H 0.0 **** 0.06
32830 H 136.66790664867486 34.98581398832016 127.69691362199292 H 0.0 **** 0.06
32831 C 50.2491808874756 60.95458255419834 30.030645802172216 C 0.0 **** -0.24
32832 H 49.44198716253041 60.88716894870038 30.760428499445027 H 0.0 **** 0.06
32833 H 51.20849991370454 60.86475846684306 30.54096700780309 H 0.0 **** 0.06
32834 H 50.19752656337684 61.916488750434326 29.520429799652504 H 0.0 **** 0.06
32835 H 50.1486168210952 60.15102225236075 29.3016315816094 H 0.0 **** 0.06
32836 C 43.71342691910064 75.07711400854475 136.18958235628253 C 0.0 **** -0.24
32837 H 44.156020931489095 74.08576846584002 136.29138932821695 H 0.0 **** 0.06
32838 H 44.25982809761148 75.78527432739105 136.81258779801314 H 0.0 **** 0.06
32839 H 42.67125578058541 75.04358156987881 136.5064087019049 H 0.0 **** 0.06
32840 H 43.76606732561875 75.39259362783625 135.14751870009138 H 0.0 **** 0.06
32841 C 37.288223076171334 58.51794094469324 43.97483428107233 C 0.0 **** -0.24
32842 H 36.26911267928703 58.86315859357455 43.80155467726735 H 0.0 **** 0.06
32843 H 37.2699432840748 57.47333941622372 44.28641505911989 H 0.0 **** 0.06
32844 H 37.7485619221853 59.12232730269665 44.75713690119986 H 0.0 **** 0.06
32845 H 37.864636034721656 58.61350156309396 43.05475530444107 H 0.0 **** 0.06
32846 C 67.8162453507382 118.55171492051 93.61381444079262 C 0.0 **** -0.24
32847 H 67.03875405771123 117.84856770466934 93.31261614278094 H 0.0 **** 0.06
32848 H 68.26006409721322 118.22042274118076 94.55336249059616 H 0.0 **** 0.06
32849 H 67.37902165219799 119.5411524306466 93.74588597162665 H 0.0 **** 0.06
32850 H 68.58552036317622 118.59358938735716 92.84262409206218 H 0.0 **** 0.06
32851 C 66.2097336128356 92.55143743246043 127.33393896462557 C 0.0 **** -0.24
32852 H 66.36219678079101 92.82104775963634 128.3786945750263 H 0.0 **** 0.06
32853 H 66.75312729257735 93.24775125934728 126.69531276789135 H 0.0 **** 0.06
32854 H 65.14552433018 92.59693969044599 127.09869590999193 H 0.0 **** 0.06
32855 H 66.57570214682175 91.53946442423033 127.16291649223466 H 0.0 **** 0.06
32856 C 13.985783482021027 23.023109051773417 123.38071700854908 C 0.0 **** -0.24
32857 H 13.517274815646942 23.91614870412542 122.96666763088487 H 0.0 **** 0.06
32858 H 14.228434491526556 23.194836500295253 124.43042665071582 H 0.0 **** 0.06
32859 H 14.8988585661656 22.802303421940536 122.8277940209397 H 0.0 **** 0.06
32860 H 13.298344914029101 22.182024686515746 123.29880057038264 H 0.0 **** 0.06
32861 C 93.31179308260361 63.777852372563984 103.66792308303414 C 0.0 **** -0.24
32862 H 92.32830031971434 63.56618719380174 103.24890055635636 H 0.0 **** 0.06
32863 H 93.72184356647249 62.870486635194396 104.11037764598991 H 0.0 **** 0.06
32864 H 93.22205454622492 64.54831245040566 104.4332016524485 H 0.0 **** 0.06
32865 H 93.97486542656343 64.12788514012328 102.87659495678238 H 0.0 **** 0.06
32866 C 88.61073864885194 1.2630759931771394 19.22471845309238 C 0.0 **** -0.24
32867 H 88.5816859413188 2.128615281390207 19.88759234978687 H 0.0 **** 0.06
32868 H 88.71298380457375 0.3543724376702322 19.817627232969357 H 0.0 **** 0.06
32869 H 89.46001096962767 1.3530422964552713 18.546503363078557 H 0.0 **** 0.06
32870 H 87.68780585824581 1.2177463890060487 18.646367898248144 H 0.0 **** 0.06
32871 C 62.694167869677926 48.8026342375575 37.91818230828413 C 0.0 **** -0.24
32872 H 62.581047344485285 48.43989337696473 38.94097358065284 H 0.0 **** 0.06
32873 H 63.634551332161664 49.34736821820033 37.8288909950739 H 0.0 **** 0.06
32874 H 61.86505473566257 49.4670554690604 37.6756603889084 H 0.0 **** 0.06
32875 H 62.69641466974383 47.9570922543968 37.231685635754346 H 0.0 **** 0.06
32876 C 26.212192346074687 69.83973868286928 73.84697917224285 C 0.0 **** -0.24
32877 H 26.508521020264197 70.85462735638569 74.11251894177398 H 0.0 **** 0.06
32878 H 25.12950074243551 69.79666585856252 73.73039158723117 H 0.0 **** 0.06
32879 H 26.52078683366787 69.15350299583868 74.63612689166803 H 0.0 **** 0.06
32880 H 26.691436253617695 69.55477521452633 72.91008046566202 H 0.0 **** 0.06
32881 C 113.15423552239787 46.17272760917295 131.46130848525794 C 0.0 **** -0.24
32882 H 114.02210770300596 46.720345956386296 131.09363866939952 H 0.0 **** 0.06
32883 H 112.26676477311335 46.80076987888165 131.37432165721506 H 0.0 **** 0.06
32884 H 113.30971002627453 45.904941111314315 132.50657120268698 H 0.0 **** 0.06
32885 H 113.01848412802377 45.26705197681951 130.87031333911347 H 0.0 **** 0.06
32886 C 128.2146943766005 135.16381549629529 34.85063867904154 C 0.0 **** -0.24
32887 H 127.12472530851676 135.1279436888679 34.86437807664328 H 0.0 **** 0.06
32888 H 128.54679409094138 136.18265001725123 35.04922882042004 H 0.0 **** 0.06
32889 H 128.5753597732159 134.84738458394472 33.8722742382934 H 0.0 **** 0.06
32890 H 128.60911912763424 134.49619513502608 35.61637114480985 H 0.0 **** 0.06
32891 C 40.1570942302895 114.3697865120512 14.63454636776379 C 0.0 **** -0.24
32892 H 39.93404167259243 113.663228223548 13.8358480846872 H 0.0 **** 0.06
32893 H 39.23317014270549 114.64694627861806 15.142850252821404 H 0.0 **** 0.06
32894 H 40.62170618302538 115.26123851467653 14.212250075439968 H 0.0 **** 0.06
32895 H 40.83904185587353 113.90784588940437 15.348138925368943 H 0.0 **** 0.06
32896 C 89.52307658224336 118.33800534006193 106.5024745750161 C 0.0 **** -0.24
32897 H 90.18192120925988 117.48844961225996 106.32079651280503 H 0.0 **** 0.06
32898 H 88.7621580393551 118.05750956875451 107.23196291295733 H 0.0 **** 0.06
32899 H 89.0418915549031 118.63111951786877 105.5690673016548 H 0.0 **** 0.06
32900 H 90.10662479796196 119.1727581512824 106.88914139281775 H 0.0 **** 0.06
32901 C 72.89837717975286 104.69727205748868 62.96793392675991 C 0.0 **** -0.24
32902 H 73.84615054814759 105.05381491320597 62.563288472187736 H 0.0 **** 0.06
32903 H 73.0811217558649 104.14306364493419 63.88781025154725 H 0.0 **** 0.06
32904 H 72.41548323522119 104.04498543533666 62.239291537509104 H 0.0 **** 0.06
32905 H 72.25104748045379 105.54846221058352 63.178123433476514 H 0.0 **** 0.06
32906 C 76.38162048148303 98.72420826480732 72.77718698409095 C 0.0 **** -0.24
32907 H 76.86422613829339 99.17408091835517 71.90951225252428 H 0.0 **** 0.06
32908 H 76.73429641224416 99.21743905046463 73.68395389146897 H 0.0 **** 0.06
32909 H 76.62743009983964 97.66384560612238 72.82133063932298 H 0.0 **** 0.06
32910 H 75.30108589105672 98.8441192177587 72.69523913825589 H 0.0 **** 0.06
32911 C 97.10804898896924 7.508081700945809 136.21690833461008 C 0.0 **** -0.24
32912 H 96.92627586451323 6.449684491828748 136.40216198748058 H 0.0 **** 0.06
32913 H 96.16775697274738 7.998781879370597 135.96559116313855 H 0.0 **** 0.06
32914 H 97.80781016934071 7.617804413465137 135.3888091566398 H 0.0 **** 0.06
32915 H 97.52913729052722 7.966227977415258 137.11177295485538 H 0.0 **** 0.06
32916 C 136.456460859992 60.482212274457396 24.629494080369284 C 0.0 **** -0.24
32917 H 136.15968304253548 59.67939232368131 25.304398603331606 H 0.0 **** 0.06
32918 H 136.07625075771028 60.27634166448732 23.62896090870848 H 0.0 **** 0.06
32919 H 137.54408372472528 60.54802812916451 24.598561180293103 H 0.0 **** 0.06
32920 H 136.04576760216838 61.427084442748665 24.987059111030874 H 0.0 **** 0.06
32921 C 51.13279492997495 40.6459390497522 17.414090176056256 C 0.0 **** -0.24
32922 H 50.91444445713975 40.854550120213446 18.4613912555076 H 0.0 **** 0.06
32923 H 51.058590400800284 41.56859909260629 16.83729709383183 H 0.0 **** 0.06
32924 H 50.416532359996694 39.91864142159994 17.03277649947143 H 0.0 **** 0.06
32925 H 52.141742777442204 40.242206887982434 17.327115094709704 H 0.0 **** 0.06
32926 C 70.69552779594375 25.8606745915269 11.897313249030244 C 0.0 **** -0.24
32927 H 69.7588982360366 25.488791692945227 12.312803614513356 H 0.0 **** 0.06
32928 H 71.49228680175543 25.737384134909064 12.631133139078116 H 0.0 **** 0.06
32929 H 70.58893850498322 26.917255298182056 11.650461023864686 H 0.0 **** 0.06
32930 H 70.94123920479205 25.299668430489533 10.996364863832081 H 0.0 **** 0.06
32931 C 73.15615230489362 22.956486998535865 5.279445974969008 C 0.0 **** -0.24
32932 H 72.68817890883872 23.550300108597554 4.493695381496593 H 0.0 **** 0.06
32933 H 72.56337431964624 22.057688989598176 5.456518208594275 H 0.0 **** 0.06
32934 H 73.2080163767539 23.543725981629024 6.196358492230502 H 0.0 **** 0.06
32935 H 74.16197912222049 22.673174037512638 4.970495802378082 H 0.0 **** 0.06
32936 C 104.81562578334722 105.04519841879363 135.89362142456648 C 0.0 **** -0.24
32937 H 104.38251400189932 105.99200822372718 135.56926437944654 H 0.0 **** 0.06
32938 H 104.19272816470323 104.22218835940328 135.54303752904596 H 0.0 **** 0.06
32939 H 104.86834499987673 105.02393681407554 136.98151003410158 H 0.0 **** 0.06
32940 H 105.81913323321125 104.94487447565706 135.47866116006688 H 0.0 **** 0.06
32941 C 26.81538130896641 101.54572992499658 65.40320047648521 C 0.0 **** -0.24
32942 H 25.98229629146455 102.24983377159586 65.41790683675438 H 0.0 **** 0.06
32943 H 27.748528415653652 102.09036019363822 65.25654630418882 H 0.0 **** 0.06
32944 H 26.67621002334883 100.83649404370857 64.58735436688637 H 0.0 **** 0.06
32945 H 26.85280203439232 101.00763584383549 66.35057290987744 H 0.0 **** 0.06
32946 C 2.2156894694110747 19.82766228370528 100.73093613700541 C 0.0 **** -0.24
32947 H 1.7819934650233904 18.91791126748518 101.14410178090543 H 0.0 **** 0.06
32948 H 1.5137192090672897 20.27872445665281 100.02975305026445 H 0.0 **** 0.06
32949 H 3.142506608503936 19.585007471727323 100.2116022651087 H 0.0 **** 0.06
32950 H 2.4256477395699108 20.529881147283902 101.53822498968378 H 0.0 **** 0.06
32951 C 41.172847167229584 75.66909466353613 85.78571541157538 C 0.0 **** -0.24
32952 H 40.62688720820735 76.46127458607194 85.2745376531488 H 0.0 **** 0.06
32953 H 42.20317853610556 75.64889224297156 85.4295648419143 H 0.0 **** 0.06
32954 H 40.69888213335366 74.70870201888646 85.57902905160026 H 0.0 **** 0.06
32955 H 41.163169967992786 75.85517287232145 86.85981565277058 H 0.0 **** 0.06
32956 C 49.71952068767388 90.85010953926756 76.0371947277767 C 0.0 **** -0.24
32957 H 48.81463338756731 90.49330821826742 75.54504346612333 H 0.0 **** 0.06
32958 H 50.51909096160574 90.12297356511414 75.90006101306614 H 0.0 **** 0.06
32959 H 49.526077908466505 90.98212390909713 77.101585701082 H 0.0 **** 0.06
32960 H 50.017074145242844 91.80414132010876 75.60177611055008 H 0.0 **** 0.06
32961 C 37.520526757451194 40.97031252945024 21.226196625216687 C 0.0 **** -0.24
32962 H 38.49880638897048 40.62740931883206 21.561328476994532 H 0.0 **** 0.06
32963 H 36.93265720248945 40.116677243639955 20.88882554310419 H 0.0 **** 0.06
32964 H 37.64531819036034 41.67375186446174 20.401919158408504 H 0.0 **** 0.06
32965 H 37.007082777816095 41.464599653307204 22.050368051032365 H 0.0 **** 0.06
32966 C 98.91859602362787 99.93582167646201 6.39144155255838 C 0.0 **** -0.24
32967 H 98.06299719593662 100.57837374026565 6.596727950366411 H 0.0 **** 0.06
32968 H 98.88744054214975 99.06811383889577 7.050669527875286 H 0.0 **** 0.06
32969 H 99.8398740781271 100.49237012576918 6.566074519482864 H 0.0 **** 0.06
32970 H 98.88525416498611 99.6057603317711 5.353647332513567 H 0.0 **** 0.06
32971 C 65.34844397021844 51.52324147245061 15.31752747111608 C 0.0 **** -0.24
32972 H 65.80574338954928 50.78888115792755 14.655216227623782 H 0.0 **** 0.06
32973 H 64.26972260121327 51.533497232195145 15.159872428839208 H 0.0 **** 0.06
32974 H 65.75650735012879 52.51096693372929 15.101597429999117 H 0.0 **** 0.06
32975 H 65.56153784465982 51.26052940237527 16.353746286894136 H 0.0 **** 0.06
32976 C 37.34718306659292 124.36023393629353 75.26597792936734 C 0.0 **** -0.24
32977 H 38.25230030659122 124.02466533666541 74.76009104179865 H 0.0 **** 0.06
32978 H 37.055423883365734 123.62255824194244 76.01450266456649 H 0.0 **** 0.06
32979 H 36.5446853119019 124.47610149808179 74.53678784985566 H 0.0 **** 0.06
32980 H 37.53660300873895 125.3169427223512 75.75321962298283 H 0.0 **** 0.06
32981 C 113.43405538104449 101.24656091471473 79.82794530522347 C 0.0 **** -0.24
32982 H 114.49416468303474 101.04125491271856 79.97692107049794 H 0.0 **** 0.06
32983 H 112.93968064429538 101.32767329428799 80.79638296370591 H 0.0 **** 0.06
32984 H 112.98378291065734 100.43367076274677 79.2569563098525 H 0.0 **** 0.06
32985 H 113.31850797176554 102.18182248013676 79.28022762216224 H 0.0 **** 0.06
32986 C 68.19956890655666 1.0643777282911842 101.12633666341316 C 0.0 **** -0.24
32987 H 69.19267973783121 1.2521422630017973 100.71694630500951 H 0.0 **** 0.06
32988 H 67.51200708367186 1.834108468704013 100.77596773872978 H 0.0 **** 0.06
32989 H 68.24588595282775 1.0848017016359428 102.21429142652988 H 0.0 **** 0.06
32990 H 67.85014867998679 0.08599330975003028 100.79534794322126 H 0.0 **** 0.06
32991 C 77.55949574802686 86.3675614023785 117.50706832910703 C 0.0 **** -0.24
32992 H 76.48603176585982 86.38182975379914 117.31675651953486 H 0.0 **** 0.06
32993 H 78.08902700925294 86.13770772870464 116.58221752151712 H 0.0 **** 0.06
32994 H 77.78477601203262 85.60657553292305 118.25415826075164 H 0.0 **** 0.06
32995 H 77.87587270458192 87.34338578151682 117.87565545323412 H 0.0 **** 0.06
32996 C 36.68861877715308 100.03466973772339 91.8826186274228 C 0.0 **** -0.24
32997 H 36.27725837559606 99.67210913202717 92.8252614770438 H 0.0 **** 0.06
32998 H 37.218169600495706 100.9720662401138 92.05534044080497 H 0.0 **** 0.06
32999 H 35.8796997034399 100.19999991886965 91.17211468586444 H 0.0 **** 0.06
33000 H 37.381594383612985 99.29541129692075 91.48060887760005 H 0.0 **** 0.06
33001 C 96.42640060070562 105.96665585207995 101.20998125762485 C 0.0 **** -0.24
33002 H 96.09971633728668 106.87660969212848 100.70724331972445 H 0.0 **** 0.06
33003 H 97.37466088273499 106.15152457771605 101.7162204555101 H 0.0 **** 0.06
33004 H 96.55521654759494 105.17201307014481 100.47459401459422 H 0.0 **** 0.06
33005 H 95.67606839539272 105.66659096609152 101.94045893675548 H 0.0 **** 0.06
33006 C 132.421986608853 123.94748384394643 85.14888191280642 C 0.0 **** -0.24
33007 H 132.4403864308008 124.43344397373158 84.17272397483066 H 0.0 **** 0.06
33008 H 132.6666105749515 122.89131033429754 85.03331062626904 H 0.0 **** 0.06
33009 H 131.42853006071903 124.0453287349502 85.58542570175041 H 0.0 **** 0.06
33010 H 133.1549209552889 124.42101524114804 85.80288831188363 H 0.0 **** 0.06
33011 C 22.791355038579525 133.9299418649172 131.1424076037756 C 0.0 **** -0.24
33012 H 22.052184246530146 133.77613162177343 130.35615318126997 H 0.0 **** 0.06
33013 H 23.488051392196837 133.09197528558016 131.15486743180645 H 0.0 **** 0.06
33014 H 22.28658711740934 133.99917928369587 132.10648054189915 H 0.0 **** 0.06
33015 H 23.337259232645692 134.85423973314593 130.9501000896991 H 0.0 **** 0.06
33016 C 58.89815136338157 9.676304619454783 102.45063361853369 C 0.0 **** -0.24
33017 H 59.977764414929055 9.533265822258784 102.41588332450712 H 0.0 **** 0.06
33018 H 58.61708415971624 10.083811944555006 103.42170883000921 H 0.0 **** 0.06
33019 H 58.39940227947422 8.718436843046575 102.30006212532993 H 0.0 **** 0.06
33020 H 58.598155086769054 10.369587988459283 101.6639071511263 H 0.0 **** 0.06
33021 C 1.5264000791285355 71.60202598552424 19.94817294379976 C 0.0 **** -0.24
33022 H 2.340277866252393 71.62760259728859 19.223624917348502 H 0.0 **** 0.06
33023 H 1.457723845213991 70.60425994083232 20.383290887962886 H 0.0 **** 0.06
33024 H 0.5883428874868457 71.84548962570356 19.448446756427273 H 0.0 **** 0.06
33025 H 1.717349209794719 72.33019859796862 20.736299916893984 H 0.0 **** 0.06
33026 C 7.205878013665483 8.454697004029413 135.52455440735275 C 0.0 **** -0.24
33027 H 8.199073630319845 8.11337969722257 135.23315431600383 H 0.0 **** 0.06
33028 H 6.6709422115459915 7.638259477214717 136.01123457228266 H 0.0 **** 0.06
33029 H 6.6564861500229995 8.772142015543523 134.6385192578125 H 0.0 **** 0.06
33030 H 7.29715168163051 9.291575245654599 136.21576198264844 H 0.0 **** 0.06
33031 C 56.53311975920188 87.82409732180957 113.65319958303098 C 0.0 **** -0.24
33032 H 56.27438347782878 86.91452289665827 113.11118947150067 H 0.0 **** 0.06
33033 H 57.56244993008667 88.10194195163717 113.42634759069188 H 0.0 **** 0.06
33034 H 56.432518870524646 87.64874381939103 114.72527643208934 H 0.0 **** 0.06
33035 H 55.864124475334336 88.62939308241675 113.35295298109139 H 0.0 **** 0.06
33036 C 135.38333465945763 120.21070706833558 91.3810816976786 C 0.0 **** -0.24
33037 H 136.2201196906894 120.74919865444949 90.93500801066887 H 0.0 **** 0.06
33038 H 134.96644618234865 119.51750754017247 90.64948102705344 H 0.0 **** 0.06
33039 H 134.61648163668943 120.9217162526548 91.68659992825664 H 0.0 **** 0.06
33040 H 135.7314744262894 119.65492754762278 92.25115746656951 H 0.0 **** 0.06
33041 C 57.66521184556326 121.77229291697793 79.09132001969584 C 0.0 **** -0.24
33042 H 57.317746746927966 120.79701913873004 79.42968231770558 H 0.0 **** 0.06
33043 H 58.26392790134945 122.23677745701389 79.87547708630518 H 0.0 **** 0.06
33044 H 56.80653818359497 122.40549434233705 78.86585249376418 H 0.0 **** 0.06
33045 H 58.27217312851728 121.65120157119753 78.19447448331374 H 0.0 **** 0.06
33046 C 113.11289169591731 75.81070254250601 105.5940453156219 C 0.0 **** -0.24
33047 H 113.27570254369886 76.88402110457892 105.49692195550405 H 0.0 **** 0.06
33048 H 112.38937035792907 75.62447833161589 106.38769856237577 H 0.0 **** 0.06
33049 H 114.05602823818117 75.32124523141788 105.8379266105236 H 0.0 **** 0.06
33050 H 112.73081091804178 75.41514557984006 104.65288962393386 H 0.0 **** 0.06
33051 C 2.626341054456873 28.724719748718115 120.26178256862576 C 0.0 **** -0.24
33052 H 2.780725599465711 28.677560587351692 119.18355183611625 H 0.0 **** 0.06
33053 H 3.032208418123332 27.82612972430033 120.72671345014719 H 0.0 **** 0.06
33054 H 1.5597091378115806 28.79426074342814 120.47377652490505 H 0.0 **** 0.06
33055 H 3.134545957340322 29.601760584141104 120.66210018519749 H 0.0 **** 0.06
33056 C 92.40730713671877 128.25628919592123 21.0318335511447 C 0.0 **** -0.24
33057 H 92.9617512433489 128.91562249840814 20.364173172450535 H 0.0 **** 0.06
33058 H 92.7071327589091 128.4480254108865 22.062793273171394 H 0.0 **** 0.06
33059 H 92.62230560625348 127.21834289066595 20.77800451033164 H 0.0 **** 0.06
33060 H 91.33889712774787 128.44265474567828 20.92231641927515 H 0.0 **** 0.06
33061 C 43.6837256831343 102.00984393301877 12.644444607755023 C 0.0 **** -0.24
33062 H 44.029729021749404 101.56810430847307 11.709299210825638 H 0.0 **** 0.06
33063 H 42.596541259748506 102.09780800131142 12.623313844150964 H 0.0 **** 0.06
33064 H 44.12676591727484 102.99798100567489 12.764484152838978 H 0.0 **** 0.06
33065 H 43.980219773442684 101.37376297537185 13.477794641991053 H 0.0 **** 0.06
33066 C 115.01965503014722 16.986091436382324 2.709973150393637 C 0.0 **** -0.24
33067 H 114.77643115547846 16.038311135034043 2.2276591444797873 H 0.0 **** 0.06
33068 H 116.05809782218725 17.24342908251687 2.5003974261568374 H 0.0 **** 0.06
33069 H 114.87744139624311 16.89220700905244 3.7863940907369056 H 0.0 **** 0.06
33070 H 114.36591384303279 17.76798254250491 2.3238529525306717 H 0.0 **** 0.06
33071 C 97.10900084948982 98.04693762007535 102.76216016639444 C 0.0 **** -0.24
33072 H 97.88213346334597 97.32701838924976 102.4929774372115 H 0.0 **** 0.06
33073 H 96.29086925159045 97.9846653714176 102.04488553365923 H 0.0 **** 0.06
33074 H 97.52863267523382 99.05200318922061 102.74869477241828 H 0.0 **** 0.06
33075 H 96.73569036630643 97.82189672784762 103.76083524229625 H 0.0 **** 0.06
33076 C 6.191815195002505 10.98716538176626 66.08537163320338 C 0.0 **** -0.24
33077 H 5.620070111456357 10.964918107084515 67.01312250513251 H 0.0 **** 0.06
33078 H 6.107176904278418 10.023060196018008 65.58378054523939 H 0.0 **** 0.06
33079 H 7.239032205214471 11.189529226870405 66.31033713100788 H 0.0 **** 0.06
33080 H 5.8013218365072134 11.771078003054356 65.43738942312095 H 0.0 **** 0.06
33081 C 92.3111402928658 12.028231030897036 109.13691258784299 C 0.0 **** -0.24
33082 H 92.23960787342976 12.289497698815278 108.08093203869275 H 0.0 **** 0.06
33083 H 91.90101257614715 12.839242066071552 109.74060168365133 H 0.0 **** 0.06
33084 H 93.35656998859285 11.871298637232492 109.40230292569753 H 0.0 **** 0.06
33085 H 91.74764840911563 11.114789431751618 109.32495344673507 H 0.0 **** 0.06
33086 C 12.998547209373797 46.10835019501178 16.05695821207651 C 0.0 **** -0.24
33087 H 12.151163947514888 45.45838383188021 15.835656471384631 H 0.0 **** 0.06
33088 H 13.563969716104609 45.69527460920108 16.89235154243319 H 0.0 **** 0.06
33089 H 12.634775899070519 47.102086935975024 16.318572037641182 H 0.0 **** 0.06
33090 H 13.64224494971836 46.17592727696274 15.180317129894576 H 0.0 **** 0.06
33091 C 129.73570292100283 107.44174218177545 94.17354818281547 C 0.0 **** -0.24
33092 H 130.31102880541138 107.96187225429054 93.40841430986845 H 0.0 **** 0.06
33093 H 129.7118508124213 106.37512939936369 93.94831863122586 H 0.0 **** 0.06
33094 H 128.71850511800403 107.83315685555255 94.19207521587332 H 0.0 **** 0.06
33095 H 130.20171648946004 107.59825996503 95.14706226044511 H 0.0 **** 0.06
33096 C 66.58730292233099 14.44786155879116 82.21410889822687 C 0.0 **** -0.24
33097 H 65.88359724772138 13.910091075265193 81.57873004074042 H 0.0 **** 0.06
33098 H 66.95564629740198 13.781217574973184 82.99377678440248 H 0.0 **** 0.06
33099 H 66.0856001558245 15.300822583719452 82.67103655396039 H 0.0 **** 0.06
33100 H 67.42525388779687 14.800065139677791 81.61160667363384 H 0.0 **** 0.06
33101 C 107.54314541529538 108.61928177725292 4.580369862974862 C 0.0 **** -0.24
33102 H 106.59822655624987 108.5511195113952 5.120927345721213 H 0.0 **** 0.06
33103 H 107.74411730336863 109.66047363100975 4.330614327325861 H 0.0 **** 0.06
33104 H 107.48158039974498 108.02917484682348 3.6658559850391157 H 0.0 **** 0.06
33105 H 108.34722222729613 108.23310500337618 5.20773586079531 H 0.0 **** 0.06
33106 C 36.09884496755086 106.81245503303904 24.305709012797763 C 0.0 **** -0.24
33107 H 35.68408359317402 106.30764920233185 23.433313959268467 H 0.0 **** 0.06
33108 H 35.97287846555754 106.17961069583873 25.18481173551468 H 0.0 **** 0.06
33109 H 35.57894907011257 107.75697198150476 24.460000827330276 H 0.0 **** 0.06
33110 H 37.16013652280901 107.00326090782931 24.14508076065914 H 0.0 **** 0.06
33111 C 64.9423443124726 106.55848765170114 33.21913892772767 C 0.0 **** -0.24
33112 H 64.0691426585594 107.20938861363328 33.2549556881047 H 0.0 **** 0.06
33113 H 65.73033870954656 107.03944341830379 32.63969226200919 H 0.0 **** 0.06
33114 H 64.67150489248772 105.6131460906426 32.74888324592354 H 0.0 **** 0.06
33115 H 65.2988107505337 106.37140778969325 34.231797725044714 H 0.0 **** 0.06
33116 C 50.94254565927611 82.08881052010965 47.9642982880483 C 0.0 **** -0.24
33117 H 51.75877325082058 81.44051045659118 48.28539590375742 H 0.0 **** 0.06
33118 H 50.17145906977103 81.48895784326189 47.48054906198551 H 0.0 **** 0.06
33119 H 51.32205710357687 82.83031859080442 47.26127417270375 H 0.0 **** 0.06
33120 H 50.518319907743404 82.59464494904331 48.832245955551855 H 0.0 **** 0.06
33121 C 1.4639133021578914 81.33082160164196 46.96032179251171 C 0.0 **** -0.24
33122 H 2.2801099270358804 80.62379853184504 47.10409747389383 H 0.0 **** 0.06
33123 H 1.3301882631391493 81.5191496892109 45.89521748162571 H 0.0 **** 0.06
33124 H 1.6996762871469002 82.2654218313615 47.468819841245136 H 0.0 **** 0.06
33125 H 0.5457983085705678 80.91357788123338 47.37424522760415 H 0.0 **** 0.06
33126 C 100.14231260576747 117.13268283120206 94.09935394746955 C 0.0 **** -0.24
33127 H 99.65613967369421 116.35251260347061 94.6854208176672 H 0.0 **** 0.06
33128 H 100.19291398887606 118.04943646881065 94.6861514372086 H 0.0 **** 0.06
33129 H 99.5675776282419 117.31333617004782 93.1903868477205 H 0.0 **** 0.06
33130 H 101.15051495775708 116.8127189523104 93.83399522925407 H 0.0 **** 0.06
33131 C 80.12992977300951 53.67515335116205 44.91346500003854 C 0.0 **** -0.24
33132 H 79.25408454350651 54.31549672101801 45.02589561184405 H 0.0 **** 0.06
33133 H 79.87187870832474 52.81176653697936 44.30110410279687 H 0.0 **** 0.06
33134 H 80.4612836097341 53.33870446183754 45.89603706218108 H 0.0 **** 0.06
33135 H 80.93030868882937 54.23648901722112 44.432209468857366 H 0.0 **** 0.06
33136 C 89.55565353787966 58.834740839409164 9.657798646739245 C 0.0 **** -0.24
33137 H 89.55663010069699 59.61154582094201 10.422927500882611 H 0.0 **** 0.06
33138 H 88.89345480925158 58.02443354292228 9.964405948920916 H 0.0 **** 0.06
33139 H 90.56745364666574 58.449889993801435 9.530462765835583 H 0.0 **** 0.06
33140 H 89.2044206952176 59.254878401343944 8.71549298080674 H 0.0 **** 0.06
33141 C 82.93321555255812 122.36481381087697 87.1669077350077 C 0.0 **** -0.24
33142 H 82.33709499372617 122.6956243467726 86.31583971344915 H 0.0 **** 0.06
33143 H 82.51633478601877 122.77888789176433 88.08506303287164 H 0.0 **** 0.06
33144 H 83.96011566523828 122.70815941592821 87.04577570508332 H 0.0 **** 0.06
33145 H 82.91768621953008 121.27579828912974 87.21930176067113 H 0.0 **** 0.06
33146 C 63.618723219771084 43.47119578154718 10.265893820619908 C 0.0 **** -0.24
33147 H 62.63860035355114 43.025027106260524 10.095703431482718 H 0.0 **** 0.06
33148 H 63.4991059153287 44.42765550270849 10.77485115364496 H 0.0 **** 0.06
33149 H 64.11756889523645 43.627702011604214 9.309835861726754 H 0.0 **** 0.06
33150 H 64.21890343474746 42.80252687310434 10.884178328071556 H 0.0 **** 0.06
33151 C 68.78164852522238 39.87732801426995 19.600080794010807 C 0.0 **** -0.24
33152 H 67.80545672266048 40.342020277464 19.463363191549263 H 0.0 **** 0.06
33153 H 68.65431369063067 38.89132473745495 20.048380358463533 H 0.0 **** 0.06
33154 H 69.39124168889936 40.49870627429348 20.25511837594513 H 0.0 **** 0.06
33155 H 69.27384355347371 39.77582245120209 18.632507661364457 H 0.0 **** 0.06
33156 C 33.22667164826905 57.663552595280805 29.03145609682673 C 0.0 **** -0.24
33157 H 33.22769541902518 58.66583457096149 28.60231872486952 H 0.0 **** 0.06
33158 H 34.24977972661 57.292592435676596 29.09105033389949 H 0.0 **** 0.06
33159 H 32.63543238242784 56.998972847445145 28.400349911563637 H 0.0 **** 0.06
33160 H 32.792621569101215 57.69613938480978 30.030313768835413 H 0.0 **** 0.06
33161 C 12.613456148058305 42.82659692707139 21.318118936417136 C 0.0 **** -0.24
33162 H 13.415153619903805 43.441839620216086 21.72926703038746 H 0.0 **** 0.06
33163 H 13.038686857214401 41.92287853814284 20.880557488848694 H 0.0 **** 0.06
33164 H 12.08235208947832 43.388702250920915 20.5498148585761 H 0.0 **** 0.06
33165 H 11.920335063469537 42.55417280110919 22.114333318411923 H 0.0 **** 0.06
33166 C 54.53016956204338 84.98645215758108 88.90213222795563 C 0.0 **** -0.24
33167 H 53.51861639653957 84.63140641346149 88.7059798394302 H 0.0 **** 0.06
33168 H 55.07015213156167 84.23779824935352 89.48189357202914 H 0.0 **** 0.06
33169 H 54.48458272863495 85.91909233166399 89.46496456066187 H 0.0 **** 0.06
33170 H 55.04513285217841 85.15619817893725 87.95725969748439 H 0.0 **** 0.06
33171 C 47.20480679239952 132.22479237364797 22.3911250119547 C 0.0 **** -0.24
33172 H 46.63271371364581 131.5655756144101 23.04409043288328 H 0.0 **** 0.06
33173 H 48.25545755732773 131.9367469246962 22.4137483721411 H 0.0 **** 0.06
33174 H 47.101562279951025 133.25441937591052 22.734349270268183 H 0.0 **** 0.06
33175 H 46.8272235637327 132.14306296547733 21.371646079591414 H 0.0 **** 0.06
33176 C 39.39677333031483 71.54049219074477 101.03102785557991 C 0.0 **** -0.24
33177 H 38.97823092294067 71.12369966690511 100.11464838598323 H 0.0 **** 0.06
33178 H 40.30586399225419 72.09271288269076 100.79565904524446 H 0.0 **** 0.06
33179 H 39.63108192339678 70.73207782580948 101.72320105172804 H 0.0 **** 0.06
33180 H 38.67055057074808 72.21238920693906 101.48888589298934 H 0.0 **** 0.06
33181 C 38.11001724043541 63.45093720150517 97.28856828759695 C 0.0 **** -0.24
33182 H 38.948806274706726 63.61692357912462 97.96423870967234 H 0.0 **** 0.06
33183 H 38.44898286039658 62.88332339357352 96.42122406868364 H 0.0 **** 0.06
33184 H 37.71038808441946 64.41074553147607 96.96187952321534 H 0.0 **** 0.06
33185 H 37.33136550149885 62.89131910821908 97.80774182614164 H 0.0 **** 0.06
33186 C 29.877024002244156 118.4372018048841 46.6121030959568 C 0.0 **** -0.24
33187 H 30.6084434616116 118.30167444402574 47.409332052075555 H 0.0 **** 0.06
33188 H 29.74588346969273 117.49707073810868 46.07687158275533 H 0.0 **** 0.06
33189 H 30.232005319283502 119.20255250864938 45.921773727391425 H 0.0 **** 0.06
33190 H 28.92566436866531 118.74876363041383 47.041536521822636 H 0.0 **** 0.06
33191 C 18.026647636542464 26.580853010534383 78.2272054696619 C 0.0 **** -0.24
33192 H 18.87886828568611 26.913627845951254 77.63317010109324 H 0.0 **** 0.06
33193 H 17.22661975840913 27.318297920808106 78.15756001758311 H 0.0 **** 0.06
33194 H 18.33049820964908 26.46972904445323 79.26768531893799 H 0.0 **** 0.06
33195 H 17.671620056031713 25.62278164201433 77.84777599937158 H 0.0 **** 0.06
33196 C 41.59710031948936 65.29962734137962 19.334666394346556 C 0.0 **** -0.24
33197 H 42.49169119241671 65.87753808960656 19.5651601393852 H 0.0 **** 0.06
33198 H 41.840646617754004 64.23651241496873 19.342215196100142 H 0.0 **** 0.06
33199 H 41.22719832213366 65.58099976353861 18.349092906716606 H 0.0 **** 0.06
33200 H 40.831485431321966 65.50227059621028 20.08304703221441 H 0.0 **** 0.06
33201 C 68.07206107097971 119.11877998641597 90.05405692643905 C 0.0 **** -0.24
33202 H 68.94990218559738 119.1852119580613 89.41121492410167 H 0.0 **** 0.06
33203 H 67.99746070372302 118.11086670208775 90.46335718181314 H 0.0 **** 0.06
33204 H 67.17722618978647 119.34106159266219 89.47190786645263 H 0.0 **** 0.06
33205 H 68.16252342464935 119.8364936922186 90.86851846225841 H 0.0 **** 0.06
33206 C 105.8037236409608 105.32026733687417 80.85546344177936 C 0.0 **** -0.24
33207 H 105.75700903662724 106.35226059760623 80.5075213136695 H 0.0 **** 0.06
33208 H 106.22344489068351 104.69092942529431 80.07103058766435 H 0.0 **** 0.06
33209 H 104.79897966203268 104.97438285044444 81.10066249310796 H 0.0 **** 0.06
33210 H 106.43412939281065 105.2641558830856 81.74352943396751 H 0.0 **** 0.06
33211 C 28.755139643599904 12.162161361228982 1.099908061731071 C 0.0 **** -0.24
33212 H 29.48532013004433 11.500933141276619 0.6326011061061649 H 0.0 **** 0.06
33213 H 28.135485771449567 12.620593479009699 0.32871666564085444 H 0.0 **** 0.06
33214 H 29.275572019488038 12.940451664293619 1.659250059567853 H 0.0 **** 0.06
33215 H 28.124896670341514 11.586505571324665 1.778385257967443 H 0.0 **** 0.06
33216 C 65.17471423630121 90.41704832829285 95.12232394182143 C 0.0 **** -0.24
33217 H 66.14521964743147 90.32973005180239 94.63426266577619 H 0.0 **** 0.06
33218 H 65.13503756731774 89.73960097975056 95.97650249909952 H 0.0 **** 0.06
33219 H 64.38786907812812 90.15522609844699 94.41424419848386 H 0.0 **** 0.06
33220 H 65.03049325050995 91.44165083760751 95.46423919423935 H 0.0 **** 0.06
33221 C 113.19267198189834 97.78338375545682 27.632076326569134 C 0.0 **** -0.24
33222 H 113.22192683560533 98.74711166465885 27.123581747783 H 0.0 **** 0.06
33223 H 113.74545319834857 97.04861647518797 27.04739180007187 H 0.0 **** 0.06
33224 H 112.15786455674285 97.4605605903678 27.73923875313458 H 0.0 **** 0.06
33225 H 113.64743739425944 97.87987887390578 28.617786810058092 H 0.0 **** 0.06
33226 C 5.130850386225092 120.34621528669726 101.67386984876049 C 0.0 **** -0.24
33227 H 4.52714891166471 120.87331422257685 100.93468155718693 H 0.0 **** 0.06
33228 H 6.119469918722217 120.8031019964637 101.7263107826972 H 0.0 **** 0.06
33229 H 5.227847874544949 119.30000996969362 101.3839871511243 H 0.0 **** 0.06
33230 H 4.648220169285992 120.41083313294823 102.64918143000295 H 0.0 **** 0.06
33231 C 109.36294592987429 0.6504398689290838 49.60698003190515 C 0.0 **** -0.24
33232 H 109.6782723161349 -0.24114165237858742 50.15004888301692 H 0.0 **** 0.06
33233 H 109.67647383140843 1.5387621234923472 50.15589160718946 H 0.0 **** 0.06
33234 H 108.27793418863803 0.6491690981434317 49.507100465195435 H 0.0 **** 0.06
33235 H 109.81979436374593 0.6535362456817211 48.61811456482633 H 0.0 **** 0.06
33236 C 52.64391047876269 57.753171111491866 70.63905793702088 C 0.0 **** -0.24
33237 H 52.710699260564894 58.37047492191641 71.53571639588782 H 0.0 **** 0.06
33238 H 52.510060446664355 58.392915148034575 69.76699556600903 H 0.0 **** 0.06
33239 H 51.79367000030224 57.075983683584354 70.72789732872775 H 0.0 **** 0.06
33240 H 53.56055188724072 57.17330438844749 70.5283727861958 H 0.0 **** 0.06
33241 C 29.981788951353707 90.12950749439209 32.84027742546294 C 0.0 **** -0.24
33242 H 29.21841722381067 90.17788086988675 33.61625915415917 H 0.0 **** 0.06
33243 H 30.968894665518697 90.18869484864493 33.29836061696096 H 0.0 **** 0.06
33244 H 29.850639543962643 90.96168159511569 32.14880859113018 H 0.0 **** 0.06
33245 H 29.88833950228745 89.18748179867666 32.29761641904082 H 0.0 **** 0.06
33246 C 36.911960313161615 56.558081826533794 5.6335393531400655 C 0.0 **** -0.24
33247 H 37.7323599879297 57.039649526102096 5.101279084369452 H 0.0 **** 0.06
33248 H 36.06573479615733 56.43033959522481 4.957127168046185 H 0.0 **** 0.06
33249 H 36.61163405886185 57.18023118071582 6.477451342931545 H 0.0 **** 0.06
33250 H 37.23701857871187 55.58418432540665 5.997600855116616 H 0.0 **** 0.06
33251 C 0.38210838417552395 54.200732359465604 49.98636733705828 C 0.0 **** -0.24
33252 H -0.12915164447491634 54.05505538716778 49.03530034680293 H 0.0 **** 0.06
33253 H 1.4589163393714841 54.23462744191215 49.818862586144576 H 0.0 **** 0.06
33254 H 0.14306267381036264 53.37586607435355 50.65720323138993 H 0.0 **** 0.06
33255 H 0.05508768582691914 55.13976520374436 50.43389150825672 H 0.0 **** 0.06
33256 C 34.7151068276051 34.60011290449489 105.50173434146808 C 0.0 **** -0.24
33257 H 33.6857668487674 34.24777538773833 105.5743400132243 H 0.0 **** 0.06
33258 H 35.102707950503486 34.38286042610957 104.50643800896589 H 0.0 **** 0.06
33259 H 35.32517357950883 34.09201632255849 106.24800268761055 H 0.0 **** 0.06
33260 H 34.745004153173625 35.675468712993734 105.67751005237454 H 0.0 **** 0.06
33261 C 80.25681334190794 10.51273002331186 118.24000117145937 C 0.0 **** -0.24
33262 H 80.11965012979182 10.993607166328758 119.20831076494646 H 0.0 **** 0.06
33263 H 80.05458021884931 9.445301041506909 118.33198609007988 H 0.0 **** 0.06
33264 H 81.28357194682734 10.660984757811121 117.90388748095043 H 0.0 **** 0.06
33265 H 79.57042516360042 10.952707779765788 117.51692795353759 H 0.0 **** 0.06
33266 C 54.618217166778436 30.631945491153708 57.872241168025084 C 0.0 **** -0.24
33267 H 55.63767743890057 30.912194344509636 58.136508789660354 H 0.0 **** 0.06
33268 H 54.621185034410175 29.648958791170898 57.40168364504501 H 0.0 **** 0.06
33269 H 54.20884302946851 31.365766844333038 57.17781542779221 H 0.0 **** 0.06
33270 H 54.0048667205816 30.602565201992398 58.7728504580237 H 0.0 **** 0.06
33271 C 59.35006841448397 89.13495105413634 122.01095140033283 C 0.0 **** -0.24
33272 H 59.1489115177818 90.17239866273034 122.27821985793184 H 0.0 **** 0.06
33273 H 60.190063592818746 89.09590982431583 121.31575426873655 H 0.0 **** 0.06
33274 H 58.46678773803397 88.70396865167521 121.53865221687948 H 0.0 **** 0.06
33275 H 59.59507600908154 88.56867661497915 122.90934640610647 H 0.0 **** 0.06
33276 C 136.34257652999602 91.36712682138881 78.35083684784689 C 0.0 **** -0.24
33277 H 135.42291264983683 91.94004425387219 78.2314549706129 H 0.0 **** 0.06
33278 H 137.0957280274294 91.74013716433994 77.65746744920017 H 0.0 **** 0.06
33279 H 136.1447387473299 90.31524503955525 78.14218872725746 H 0.0 **** 0.06
33280 H 136.70641415883588 91.47191874114705 79.37341395394208 H 0.0 **** 0.06
33281 C 55.33385623602703 127.68430789467682 92.87887324814301 C 0.0 **** -0.24
33282 H 56.282782984955674 128.2115556674416 92.96542250031541 H 0.0 **** 0.06
33283 H 55.3443226506044 127.06208998066 91.98311521436426 H 0.0 **** 0.06
33284 H 54.52049407335403 128.40679662961654 92.80950398978084 H 0.0 **** 0.06
33285 H 55.18601371607366 127.05524198506689 93.75688164788113 H 0.0 **** 0.06
33286 C 48.83480582872174 99.06555191051109 126.59015230521527 C 0.0 **** -0.24
33287 H 49.37350461191819 98.1363722439092 126.40266134859309 H 0.0 **** 0.06
33288 H 49.348954101673755 99.63272349803225 127.36584875914826 H 0.0 **** 0.06
33289 H 47.8208363390233 98.83655141989715 126.91863629032059 H 0.0 **** 0.06
33290 H 48.79578032513176 99.65470294527745 125.6741893652815 H 0.0 **** 0.06
33291 C 106.24334911713 46.00837535299509 97.7961760269257 C 0.0 **** -0.24
33292 H 106.76591752479892 45.0910739578102 97.52514011440694 H 0.0 **** 0.06
33293 H 106.32346925604088 46.726167715215865 96.97882908466849 H 0.0 **** 0.06
33294 H 106.69297641626915 46.43018495941561 98.6951226403843 H 0.0 **** 0.06
33295 H 105.1930251213413 45.786327828102685 97.98420913661737 H 0.0 **** 0.06
33296 C 1.8215366027410518 125.71896322988108 14.295533078619371 C 0.0 **** -0.24
33297 H 1.6836758856638987 125.32481631420478 13.289281302137567 H 0.0 **** 0.06
33298 H 2.4789104142451492 125.05625213037591 14.858771708140296 H 0.0 **** 0.06
33299 H 0.8541539641000142 125.78335643436127 14.795031297926982 H 0.0 **** 0.06
33300 H 2.2667753833224182 126.71229660746769 14.238477879052652 H 0.0 **** 0.06
33301 C 108.6083981949314 9.921568245162796 93.27748750344418 C 0.0 **** -0.24
33302 H 107.71253829167136 10.528334112632841 93.40411378674793 H 0.0 **** 0.06
33303 H 109.37002340207584 10.502881615328967 92.75646645365453 H 0.0 **** 0.06
33304 H 108.36716906038714 9.033825093961983 92.6940411918728 H 0.0 **** 0.06
33305 H 108.98602749747937 9.623308338053626 94.25535364193519 H 0.0 **** 0.06
33306 C 0.7577843321860485 112.4248456312942 12.171842460127326 C 0.0 **** -0.24
33307 H 1.1641713928995046 112.25285930465529 11.175471899781972 H 0.0 **** 0.06
33308 H -0.12792948725106612 113.05638682084322 12.098795597971186 H 0.0 **** 0.06
33309 H 1.5067636203806103 112.92005074797791 12.789945191807117 H 0.0 **** 0.06
33310 H 0.4877044209508199 111.47020276991302 12.624053629893808 H 0.0 **** 0.06
33311 C 49.783002217196966 20.475106402624817 20.792769918940593 C 0.0 **** -0.24
33312 H 50.131412699040965 21.465594411968837 21.085109948421263 H 0.0 **** 0.06
33313 H 49.18827217863176 20.55278131844011 19.882260785985864 H 0.0 **** 0.06
33314 H 49.17118059090757 20.055392989645554 21.591756806044202 H 0.0 **** 0.06
33315 H 50.64002241550469 19.826197813884207 20.613543621218582 H 0.0 **** 0.06
33316 C 0.04123413216345284 93.23245887309656 131.5934928944313 C 0.0 **** -0.24
33317 H 0.6027683026226498 92.29875769974677 131.62832917985648 H 0.0 **** 0.06
33318 H -1.0159183545945893 93.02750276082438 131.76334779948067 H 0.0 **** 0.06
33319 H 0.16905715121157527 93.69598707119556 130.61501654270782 H 0.0 **** 0.06
33320 H 0.4094368973728706 93.9066246916583 132.36632612319093 H 0.0 **** 0.06
33321 C 11.021462050468045 52.44577130994395 23.474623666973258 C 0.0 **** -0.24
33322 H 11.14570003176388 51.60646455834154 22.79087946849843 H 0.0 **** 0.06
33323 H 11.878159180478718 53.11534347061195 23.38667880657883 H 0.0 **** 0.06
33324 H 10.953799884219848 52.07534221753423 24.4968477702743 H 0.0 **** 0.06
33325 H 10.109810763094629 52.98767356031351 23.222556309967587 H 0.0 **** 0.06
33326 C 91.41673398533698 115.99018605973413 50.13501410856807 C 0.0 **** -0.24
33327 H 90.82885207796116 116.25735978465252 51.01365747603339 H 0.0 **** 0.06
33328 H 91.05323119549936 115.04645504607615 49.72854325861141 H 0.0 **** 0.06
33329 H 92.46413035778392 115.88563113155146 50.41866209969871 H 0.0 **** 0.06
33330 H 91.32068080046696 116.77247556828749 49.38260136515967 H 0.0 **** 0.06
33331 C 76.64137792322279 12.431142578483772 116.75671423192179 C 0.0 **** -0.24
33332 H 76.39929528563673 13.055358112359304 115.8970637296249 H 0.0 **** 0.06
33333 H 75.98092145865874 12.6853689018015 117.58657166632389 H 0.0 **** 0.06
33334 H 77.67636683178563 12.602291281134217 117.05094219533885 H 0.0 **** 0.06
33335 H 76.50678176349787 11.382329990442564 116.49316714573277 H 0.0 **** 0.06
33336 C 23.569362809548835 99.86052663738992 27.289760964807627 C 0.0 **** -0.24
33337 H 23.478296371162457 98.80714382233319 27.022417235029366 H 0.0 **** 0.06
33338 H 22.873540983978558 100.0910176180746 28.09748928030558 H 0.0 **** 0.06
33339 H 23.33592892985481 100.4770753732308 26.421741759373532 H 0.0 **** 0.06
33340 H 24.58824766604061 100.06532093593461 27.618634819085656 H 0.0 **** 0.06
33341 C 2.628087900387488 37.846026062786535 46.938622885361724 C 0.0 **** -0.24
33342 H 1.7749209287050078 38.395180524921855 47.33664618494822 H 0.0 **** 0.06
33343 H 2.450223109073292 37.60642709404023 45.891116594639016 H 0.0 **** 0.06
33344 H 2.7625816199329734 36.92394031266048 47.50546099429931 H 0.0 **** 0.06
33345 H 3.5262427138442725 38.45876444357302 47.02531049185376 H 0.0 **** 0.06
33346 C 43.88927938483974 129.5769547958924 133.31158149075722 C 0.0 **** -0.24
33347 H 44.640409586682146 129.9494310028235 132.61503216900687 H 0.0 **** 0.06
33348 H 42.895066048816766 129.8385067881822 132.94641501144747 H 0.0 **** 0.06
33349 H 44.04673366479024 130.02614165970547 134.2913591695427 H 0.0 **** 0.06
33350 H 43.97322695490112 128.49298012299295 133.39042173006095 H 0.0 **** 0.06
33351 C 98.08670292887928 45.46694648641471 94.66228251274447 C 0.0 **** -0.24
33352 H 97.45029216677176 44.92195693005888 93.96498717060715 H 0.0 **** 0.06
33353 H 97.8492904788585 45.164712605207825 95.68198739354436 H 0.0 **** 0.06
33354 H 97.91446840367767 46.53742618009639 94.55079461285915 H 0.0 **** 0.06
33355 H 99.13258435668111 45.2431066973963 94.45008474819005 H 0.0 **** 0.06
33356 C 109.30747213339936 34.09582537001825 100.90526679735055 C 0.0 **** -0.24
33357 H 108.6542058389308 33.37778540362825 100.40964818271848 H 0.0 **** 0.06
33358 H 110.34653687984283 33.79623011318472 100.76741828949076 H 0.0 **** 0.06
33359 H 109.07437859899062 34.12376785195852 101.96951990039719 H 0.0 **** 0.06
33360 H 109.15365019877811 35.08432333335054 100.47332974601886 H 0.0 **** 0.06
33361 C 69.61009577594551 89.50189931375381 52.194801643710804 C 0.0 **** -0.24
33362 H 69.93922198705422 89.23382386346576 53.19901704726735 H 0.0 **** 0.06
33363 H 69.3218204141698 90.55353985575978 52.17732004905321 H 0.0 **** 0.06
33364 H 68.754759171353 88.88661976208792 51.91644502510644 H 0.0 **** 0.06
33365 H 70.42315932906145 89.33547364336933 51.48830025804398 H 0.0 **** 0.06
33366 C 52.26287862597867 0.019567888029740743 83.99753940922304 C 0.0 **** -0.24
33367 H 51.300055091916676 0.4513259032868575 83.72381887175669 H 0.0 **** 0.06
33368 H 52.10237480474245 -0.8786693909240171 84.59256991998842 H 0.0 **** 0.06
33369 H 52.83434438829994 0.7444893266227837 84.57800120360781 H 0.0 **** 0.06
33370 H 52.81503819504894 -0.23704391812867698 83.09301782875613 H 0.0 **** 0.06
33371 C 17.922193069425767 24.032927021695144 70.80851806128754 C 0.0 **** -0.24
33372 H 18.00154831810095 24.520793795650462 69.83707078353379 H 0.0 **** 0.06
33373 H 17.186882659132344 23.230017784112448 70.75281855914443 H 0.0 **** 0.06
33374 H 17.61019140220403 24.761977385906107 71.55644626309783 H 0.0 **** 0.06
33375 H 18.89187724405317 23.618543431112357 71.08604093549809 H 0.0 **** 0.06
33376 C 94.05881347646061 130.92286959670412 50.33197298509464 C 0.0 **** -0.24
33377 H 93.14391885338361 130.34154367170842 50.44220008704417 H 0.0 **** 0.06
33378 H 94.85486286511039 130.46039772272707 50.91717490586717 H 0.0 **** 0.06
33379 H 93.88912190486604 131.9388755835597 50.687687257486715 H 0.0 **** 0.06
33380 H 94.3483611459834 130.94844523350386 49.28108853360884 H 0.0 **** 0.06
33381 C 129.78900621826259 82.71581851502022 115.31922100082872 C 0.0 **** -0.24
33382 H 128.9634312632639 83.19680224125811 114.79465955564777 H 0.0 **** 0.06
33383 H 129.39348010361385 82.06029793270855 116.09523126600462 H 0.0 **** 0.06
33384 H 130.42254313419056 83.47669269507801 115.77367722656427 H 0.0 **** 0.06
33385 H 130.3757104085875 82.12882647962728 114.61196245778723 H 0.0 **** 0.06
33386 C 62.1737832344629 51.25568038032205 80.30476418381083 C 0.0 **** -0.24
33387 H 62.04938973326976 51.9252503197834 79.45444756267106 H 0.0 **** 0.06
33388 H 62.36090304271215 50.24303255419471 79.94529138507718 H 0.0 **** 0.06
33389 H 61.26744332037859 51.264640500810145 80.90967715943951 H 0.0 **** 0.06
33390 H 63.01746648883423 51.588971142088525 80.90908272188277 H 0.0 **** 0.06
33391 C 118.37047102598555 80.65126781957946 30.192643856724175 C 0.0 **** -0.24
33392 H 118.23405677420399 80.83432057875523 31.258428026702006 H 0.0 **** 0.06
33393 H 117.43597040898848 80.288799150809 29.763580745069618 H 0.0 **** 0.06
33394 H 119.15158183179628 79.9043311814956 30.049774524265302 H 0.0 **** 0.06
33395 H 118.66109961370651 81.5792368278495 29.70009882356254 H 0.0 **** 0.06
33396 C 12.47718330603091 136.34364592648532 105.17020948186547 C 0.0 **** -0.24
33397 H 12.003441154307183 135.63952663492861 104.48713964764254 H 0.0 **** 0.06
33398 H 12.559864192106986 137.31796436983788 104.68718198137101 H 0.0 **** 0.06
33399 H 13.470748153421923 135.9824597071838 105.43282974202953 H 0.0 **** 0.06
33400 H 11.873556872511699 136.43549481459104 106.07268825376828 H 0.0 **** 0.06
33401 C 121.81594925319165 84.7012392959711 104.66748441613115 C 0.0 **** -0.24
33402 H 122.52082542811075 85.51205982776196 104.85205070869709 H 0.0 **** 0.06
33403 H 120.89577259532459 84.88790973321329 105.22079274821182 H 0.0 **** 0.06
33404 H 122.25298535279859 83.75810574064673 104.99751421391348 H 0.0 **** 0.06
33405 H 121.59591577107197 84.64678289755443 103.60183683016268 H 0.0 **** 0.06
33406 C 50.782361328902326 71.12147143527852 67.31062012106989 C 0.0 **** -0.24
33407 H 50.23942987599679 70.18374994825575 67.19533838414283 H 0.0 **** 0.06
33408 H 51.80583039282426 70.99322701480597 66.95645552046973 H 0.0 **** 0.06
33409 H 50.79438183373698 71.40760564779444 68.36218170637042 H 0.0 **** 0.06
33410 H 50.29127120041362 71.90047323881382 66.72672819905138 H 0.0 **** 0.06
33411 C 68.7774524985503 31.396041261053625 126.12479065790924 C 0.0 **** -0.24
33412 H 68.2637550868613 31.686553546047776 125.20902726715472 H 0.0 **** 0.06
33413 H 69.74174731128772 31.90137840486696 126.17650079100603 H 0.0 **** 0.06
33414 H 68.93189811918086 30.316430321603065 126.1267635906575 H 0.0 **** 0.06
33415 H 68.17188465446117 31.677778232172216 126.98607976041995 H 0.0 **** 0.06
33416 C 25.827435863438325 77.313320100773 29.99996000177645 C 0.0 **** -0.24
33417 H 25.664297652638766 76.35044577874274 29.515440606468736 H 0.0 **** 0.06
33418 H 24.867544376620685 77.80165443316996 30.171508916884775 H 0.0 **** 0.06
33419 H 26.44552448080958 77.94252401149447 29.35808926220715 H 0.0 **** 0.06
33420 H 26.332454663371095 77.15931601551803 30.95291475349387 H 0.0 **** 0.06
33421 C 125.42101907767741 7.2808301180132275 41.27782677474042 C 0.0 **** -0.24
33422 H 125.0908159276075 8.262018257295495 41.61893200416732 H 0.0 **** 0.06
33423 H 124.96143635992073 6.508817804128853 41.89455828054298 H 0.0 **** 0.06
33424 H 126.50609440546238 7.214187422153941 41.36088323123366 H 0.0 **** 0.06
33425 H 125.1258857175021 7.139644642678263 40.238010430288966 H 0.0 **** 0.06
33426 C 81.89046218096479 33.01043273238751 125.29335767370549 C 0.0 **** -0.24
33427 H 81.20500304216756 32.51994265258363 125.98536661043823 H 0.0 **** 0.06
33428 H 82.86428078044099 32.5205713264654 125.33766681143294 H 0.0 **** 0.06
33429 H 81.99838199509622 34.05859636729782 125.57118377258746 H 0.0 **** 0.06
33430 H 81.49403800485254 32.94204439870744 124.28049689731426 H 0.0 **** 0.06
33431 C 110.31103536340646 115.84307280755598 12.954683666970496 C 0.0 **** -0.24
33432 H 109.40535589242367 115.27996252353233 13.181257259146207 H 0.0 **** 0.06
33433 H 111.13916584400678 115.15082906281702 12.801920524364789 H 0.0 **** 0.06
33434 H 110.54230294439478 116.50859004214885 13.785983341204087 H 0.0 **** 0.06
33435 H 110.15616858532934 116.43035102257241 12.049941930216193 H 0.0 **** 0.06
33436 C 53.93810273585915 72.59173568915202 36.920116332934896 C 0.0 **** -0.24
33437 H 52.93101192947775 72.82898940492669 37.262770438485774 H 0.0 **** 0.06
33438 H 54.562275368007434 73.48353354584458 36.98420386384001 H 0.0 **** 0.06
33439 H 53.89893353973052 72.24834244051823 35.886534746360596 H 0.0 **** 0.06
33440 H 54.36010750310827 71.80732610986456 37.548516410987446 H 0.0 **** 0.06
33441 C 74.25653706683471 88.68653881514018 59.495807629807686 C 0.0 **** -0.24
33442 H 73.998317812685 87.85748910494601 58.836140664039334 H 0.0 **** 0.06
33443 H 73.67466905398891 88.61287159266917 60.41515732863108 H 0.0 **** 0.06
33444 H 74.03203754538896 89.6295422351894 58.99739657962117 H 0.0 **** 0.06
33445 H 75.3192200126299 88.6444922152907 59.732725463370215 H 0.0 **** 0.06
33446 C 122.1052590648381 27.942508195099776 34.13567047566175 C 0.0 **** -0.24
33447 H 121.16765650257332 28.087672195657092 34.672720690083096 H 0.0 **** 0.06
33448 H 122.11684754191822 26.947858400229237 33.68869999837294 H 0.0 **** 0.06
33449 H 122.94034525090947 28.039929788849093 34.82899012145606 H 0.0 **** 0.06
33450 H 122.19401710121178 28.694669343631375 33.351739558620054 H 0.0 **** 0.06
33451 C 79.43485177136385 96.2754191214204 89.68877195460848 C 0.0 **** -0.24
33452 H 79.64487750427735 96.35768767820058 90.75537317209574 H 0.0 **** 0.06
33453 H 79.79072422895342 97.17104876339475 89.1786254619459 H 0.0 **** 0.06
33454 H 78.3606577010751 96.17189572093727 89.53668957588778 H 0.0 **** 0.06
33455 H 79.9457167552604 95.40022260563882 89.2852509927734 H 0.0 **** 0.06
33456 C 106.92213767034244 26.612439624637204 120.15764567009924 C 0.0 **** -0.24
33457 H 107.91335526478764 26.768997729728028 119.73184957763243 H 0.0 **** 0.06
33458 H 106.28017026335962 26.132909258754978 119.41887335943824 H 0.0 **** 0.06
33459 H 106.49401935612173 27.573440877551405 120.44276207205709 H 0.0 **** 0.06
33460 H 107.00154840235876 25.975106081493692 121.03858833195827 H 0.0 **** 0.06
33461 C 9.433955327411212 96.70359382481882 119.6131607826519 C 0.0 **** -0.24
33462 H 9.157663714939094 96.14640767852427 118.71821576345684 H 0.0 **** 0.06
33463 H 10.102058265241798 96.09753096912516 120.22638049520174 H 0.0 **** 0.06
33464 H 8.53628102415082 96.94560155820093 120.18231293650024 H 0.0 **** 0.06
33465 H 9.940733567876247 97.62496583466577 119.32466375141689 H 0.0 **** 0.06
33466 C 97.83098292435687 116.02654988725482 112.57380343904302 C 0.0 **** -0.24
33467 H 98.88480699465242 116.22952215662309 112.38778713025988 H 0.0 **** 0.06
33468 H 97.62330118650095 116.1279719049275 113.6387273345126 H 0.0 **** 0.06
33469 H 97.59394494523852 115.0122261738025 112.25185547761654 H 0.0 **** 0.06
33470 H 97.22026189468107 116.73606450940497 112.01535568518526 H 0.0 **** 0.06
33471 C 71.70141892790251 111.82213438461045 89.82429680085822 C 0.0 **** -0.24
33472 H 70.95482428133802 111.09613553441127 90.14848537773408 H 0.0 **** 0.06
33473 H 72.40228026428767 111.34125720730862 89.14112871118525 H 0.0 **** 0.06
33474 H 72.24074471547577 112.1997707581622 90.69280673842181 H 0.0 **** 0.06
33475 H 71.20739917650756 112.64940136283411 89.31615427575977 H 0.0 **** 0.06
33476 C 133.8606666802129 117.76147131952268 15.957042776379787 C 0.0 **** -0.24
33477 H 134.27184744033127 117.8877464889135 14.95547149652836 H 0.0 **** 0.06
33478 H 134.48045530972365 118.3013450430353 16.673616934822597 H 0.0 **** 0.06
33479 H 133.84763501782845 116.70238667355858 16.212962518249732 H 0.0 **** 0.06
33480 H 132.8452720178193 118.15550897186344 15.984971654173968 H 0.0 **** 0.06
33481 C 59.87653735574855 98.19332015879837 60.89548116928495 C 0.0 **** -0.24
33482 H 59.59754165856714 97.27542984223697 61.41253320835152 H 0.0 **** 0.06
33483 H 59.772889860182886 99.03919181986288 61.574673605669204 H 0.0 **** 0.06
33484 H 59.22507462434925 98.33617131778928 60.033384356826815 H 0.0 **** 0.06
33485 H 60.91230126679892 98.12100576556765 60.56109831707779 H 0.0 **** 0.06
33486 C 108.85390676300264 128.4732288194025 117.15383735785593 C 0.0 **** -0.24
33487 H 108.21316920176714 129.30975071477656 117.43499677260536 H 0.0 **** 0.06
33488 H 109.89886269684456 128.76440707694104 117.26049278471933 H 0.0 **** 0.06
33489 H 108.65678828198328 128.1991508402154 116.11680906130522 H 0.0 **** 0.06
33490 H 108.64476639459585 127.62218015033704 117.8012580002094 H 0.0 **** 0.06
33491 C 14.220048820928838 5.699552033731155 51.517719193655864 C 0.0 **** -0.24
33492 H 13.469435833194893 5.92040444510242 50.75914922673475 H 0.0 **** 0.06
33493 H 15.048908110539159 5.157234976732255 51.06219468996679 H 0.0 **** 0.06
33494 H 13.773278586925343 5.088280859164627 52.30254084340763 H 0.0 **** 0.06
33495 H 14.587164567050763 6.630899258562636 51.94729034399589 H 0.0 **** 0.06
33496 C 19.867936480616066 119.07346967103734 11.241402337102102 C 0.0 **** -0.24
33497 H 19.028802949432958 118.54981348656415 10.784137480577158 H 0.0 **** 0.06
33498 H 19.85308543483859 118.91166047412955 12.319623711411282 H 0.0 **** 0.06
33499 H 19.788088259368436 120.14052657979283 11.032680278657665 H 0.0 **** 0.06
33500 H 20.80176927882428 118.69187814366279 10.829167877762416 H 0.0 **** 0.06
33501 C 45.96553222285144 27.76764060165945 100.42462339016205 C 0.0 **** -0.24
33502 H 46.74163610945482 27.711127967075996 101.18800085199024 H 0.0 **** 0.06
33503 H 45.44142795967437 28.71988617701669 100.5076424169651 H 0.0 **** 0.06
33504 H 45.25813238270939 26.950333658277486 100.56577543165912 H 0.0 **** 0.06
33505 H 46.42087333441978 27.68698376397333 99.43693312120712 H 0.0 **** 0.06
33506 C 127.62699168793705 129.35704035850216 43.28213953056862 C 0.0 **** -0.24
33507 H 126.79488979728899 129.747902188345 43.86628117087942 H 0.0 **** 0.06
33508 H 127.24252372753284 128.8332318678443 42.406040112505615 H 0.0 **** 0.06
33509 H 128.20733107627245 128.6652362216189 43.893499768764855 H 0.0 **** 0.06
33510 H 128.26498998599573 130.18048184997377 42.96165968742178 H 0.0 **** 0.06
33511 C 14.060806154082712 62.941595405820166 86.68818557789564 C 0.0 **** -0.24
33512 H 14.588445915338696 62.069721126244076 86.30064123819199 H 0.0 **** 0.06
33513 H 14.74892866740879 63.78588555238197 86.74548031852808 H 0.0 **** 0.06
33514 H 13.674120323571131 62.72002332875991 87.68326797536184 H 0.0 **** 0.06
33515 H 13.233963022509414 63.190820578280466 86.02344104734351 H 0.0 **** 0.06
33516 C 84.83208649007538 91.27291050459115 49.26719804071769 C 0.0 **** -0.24
33517 H 84.19057662704276 92.13233650639268 49.07370106111421 H 0.0 **** 0.06
33518 H 84.56487536990443 90.8287281363368 50.22585401924323 H 0.0 **** 0.06
33519 H 85.87301521126628 91.5951829241683 49.29357883227317 H 0.0 **** 0.06
33520 H 84.69987875208805 90.53539445146701 48.4756582502398 H 0.0 **** 0.06
33521 C 11.177632538989855 115.98139793409226 82.26616650892356 C 0.0 **** -0.24
33522 H 11.194154951391766 115.04420252892422 81.71043202736973 H 0.0 **** 0.06
33523 H 10.172752256906293 116.15859901806041 82.64997437032503 H 0.0 **** 0.06
33524 H 11.465479021274916 116.79996393866978 81.60735006484003 H 0.0 **** 0.06
33525 H 11.879512663276287 115.92188410203752 83.09840595109597 H 0.0 **** 0.06
33526 C 125.57373326864902 62.30273239703419 96.03900917162316 C 0.0 **** -0.24
33527 H 124.80591469839318 62.58615037888404 95.31887587195061 H 0.0 **** 0.06
33528 H 126.40875249014867 61.837353083747516 95.51450931945043 H 0.0 **** 0.06
33529 H 125.15640495820927 61.59706934805169 96.75706124969709 H 0.0 **** 0.06
33530 H 125.92423396918579 63.191330258827435 96.56361201236844 H 0.0 **** 0.06
33531 C 27.553469444891164 57.79735726332788 40.687003616032996 C 0.0 **** -0.24
33532 H 28.181367378548032 57.087222760458246 40.14940970872283 H 0.0 **** 0.06
33533 H 26.95489524801411 58.365453954046146 39.97496208688625 H 0.0 **** 0.06
33534 H 28.183616656507013 58.480127649365826 41.25717128002344 H 0.0 **** 0.06
33535 H 26.894252567010994 57.2572416160757 41.36721630194904 H 0.0 **** 0.06
33536 C 74.84263957617611 71.6003147905979 122.0595548549918 C 0.0 **** -0.24
33537 H 74.33688681301169 72.48411632274508 121.6708415275634 H 0.0 **** 0.06
33538 H 74.77935300425152 71.59606575290627 123.14872606282921 H 0.0 **** 0.06
33539 H 75.8895547524645 71.61733486665099 121.75718426095253 H 0.0 **** 0.06
33540 H 74.36410867738628 70.70526021366214 121.66416331685436 H 0.0 **** 0.06
33541 C 18.1681520760732 54.11700953486 108.257171573183 C 0.0 **** -0.24
33542 H 18.644996439708272 53.155526470806365 108.06827264533877 H 0.0 **** 0.06
33543 H 18.285630218510825 54.75919786106603 107.38406956272817 H 0.0 **** 0.06
33544 H 18.634645182102453 54.589861321860724 109.12169713954091 H 0.0 **** 0.06
33545 H 17.106945718635302 53.96475329882786 108.45572181364926 H 0.0 **** 0.06
33546 C 107.9091891538879 100.22800214431214 3.3500084086190043 C 0.0 **** -0.24
33547 H 107.43080645457752 99.38990756391868 2.841854305331225 H 0.0 **** 0.06
33548 H 107.8452271876823 101.11702608486678 2.722481223185042 H 0.0 **** 0.06
33549 H 108.95578932947062 99.98854020355671 3.5362208684231007 H 0.0 **** 0.06
33550 H 107.40447131038665 100.41351281853957 4.297319697604792 H 0.0 **** 0.06
33551 C 127.28218376160567 51.187367273928146 92.87137980097455 C 0.0 **** -0.24
33552 H 127.95941704088308 50.814636424445396 92.10308568451391 H 0.0 **** 0.06
33553 H 127.51158735977694 52.23228493964173 93.0807267194255 H 0.0 **** 0.06
33554 H 127.40645705309487 50.59940648792367 93.78046192070332 H 0.0 **** 0.06
33555 H 126.25425086386362 51.10321425190075 92.52160673993143 H 0.0 **** 0.06
33556 C 26.426518783836087 94.53136639850682 104.59743418994232 C 0.0 **** -0.24
33557 H 26.178133101530342 95.48941828299722 104.14038034438953 H 0.0 **** 0.06
33558 H 26.341814337667813 93.7409201084536 103.8514523549215 H 0.0 **** 0.06
33559 H 25.738808279396366 94.3309560826054 105.41878674028477 H 0.0 **** 0.06
33560 H 27.447578500931897 94.56408262404717 104.97772982727223 H 0.0 **** 0.06
33561 C 122.28945548640982 91.94825973645254 108.64194192656254 C 0.0 **** -0.24
33562 H 121.79179368287463 91.60490990447045 107.73517808247304 H 0.0 **** 0.06
33563 H 122.86984158106344 92.84357182912336 108.42104770056018 H 0.0 **** 0.06
33564 H 122.95253721789095 91.16585014454384 109.01011834755542 H 0.0 **** 0.06
33565 H 121.54169477899198 92.17764202504435 109.40121115345445 H 0.0 **** 0.06
33566 C 41.68721375821096 132.83250247629994 3.7330110908310985 C 0.0 **** -0.24
33567 H 41.559873210782314 132.6522552925988 4.800745341532831 H 0.0 **** 0.06
33568 H 42.64412008046787 132.4257596315838 3.4078472058671423 H 0.0 **** 0.06
33569 H 41.662770249044826 133.90522488123585 3.540929794537419 H 0.0 **** 0.06
33570 H 40.879569212159396 132.34696842894277 3.1844191852297286 H 0.0 **** 0.06
33571 C 95.66642996067134 64.30457797037681 21.25640796396567 C 0.0 **** -0.24
33572 H 96.41064402349167 63.6452539574903 20.80956308860675 H 0.0 **** 0.06
33573 H 95.0066874831648 63.72281242633733 21.9004831128874 H 0.0 **** 0.06
33574 H 95.0811609344895 64.77837797295956 20.46758425713213 H 0.0 **** 0.06
33575 H 96.16816020152834 65.07065183487225 21.846716030455354 H 0.0 **** 0.06
33576 C 15.317419964421617 82.18270119265658 89.67520744883052 C 0.0 **** -0.24
33577 H 14.76963689162568 81.66581614118235 90.46309868894008 H 0.0 **** 0.06
33578 H 15.244204259234209 81.61283867644507 88.7483675042422 H 0.0 **** 0.06
33579 H 16.363523160466684 82.27729941301877 89.96315927374172 H 0.0 **** 0.06
33580 H 14.889960626246591 83.17457609625646 89.52682020986356 H 0.0 **** 0.06
33581 C 131.95163300951725 137.03409968366282 23.54703221309388 C 0.0 **** -0.24
33582 H 132.80736411344392 136.37955737338865 23.713968504261096 H 0.0 **** 0.06
33583 H 131.55635788498537 137.367463447265 24.507737340613303 H 0.0 **** 0.06
33584 H 131.17802515861752 136.48875720987013 23.005521744648796 H 0.0 **** 0.06
33585 H 132.26347127332824 137.89883953708198 22.96195109943976 H 0.0 **** 0.06
33586 C 122.49326324289655 110.57887496036989 52.85130941114191 C 0.0 **** -0.24
33587 H 123.22193061227165 109.76889278013172 52.80190437451219 H 0.0 **** 0.06
33588 H 122.05843174755859 110.61366046377489 53.85102770969725 H 0.0 **** 0.06
33589 H 121.70605973762684 110.40482406397217 52.11814506306786 H 0.0 **** 0.06
33590 H 122.98797804910913 111.52569947175189 52.63667337207875 H 0.0 **** 0.06
33591 C 25.513250423908232 74.19819642314178 103.20906778462182 C 0.0 **** -0.24
33592 H 26.560389365192123 74.44506280206798 103.03877094498239 H 0.0 **** 0.06
33593 H 25.041166359027557 73.9432664731778 102.26051288622148 H 0.0 **** 0.06
33594 H 25.004837767430388 75.05531971162009 103.65045343749563 H 0.0 **** 0.06
33595 H 25.44693223344848 73.34814455267042 103.8887499283041 H 0.0 **** 0.06
33596 C 48.92996266582125 9.675057683846262 34.4894430602283 C 0.0 **** -0.24
33597 H 49.64525575799006 9.20826267717041 33.8120345492149 H 0.0 **** 0.06
33598 H 48.01204788999631 9.085910328821 34.509863928176685 H 0.0 **** 0.06
33599 H 48.70681081901938 10.68397296619031 34.14210276636655 H 0.0 **** 0.06
33600 H 49.35518663199069 9.720601825806796 35.49122162607782 H 0.0 **** 0.06
33601 C 123.10684993754518 119.25927817949474 104.34324031851908 C 0.0 **** -0.24
33602 H 122.91117570908904 119.65308581573697 103.34631295722448 H 0.0 **** 0.06
33603 H 122.743461480252 119.96466005914175 105.09069286148114 H 0.0 **** 0.06
33604 H 124.17999120858599 119.11414083202521 104.4717863276061 H 0.0 **** 0.06
33605 H 122.59430581538021 118.3050127313636 104.46339448351286 H 0.0 **** 0.06
33606 C 67.68681552564396 31.391701823427866 48.39673949244525 C 0.0 **** -0.24
33607 H 66.73075754105422 30.870003283801623 48.45377359663854 H 0.0 **** 0.06
33608 H 68.45879972861498 30.78699613450152 48.87494926278305 H 0.0 **** 0.06
33609 H 67.60817156264291 32.35055902509663 48.9069756683453 H 0.0 **** 0.06
33610 H 67.94890993248595 31.55555939879261 47.35126625040772 H 0.0 **** 0.06
33611 C 132.0321020214199 35.551127478265514 73.7974020887602 C 0.0 **** -0.24
33612 H 132.41791676817186 36.55516963509609 73.62190743326933 H 0.0 **** 0.06
33613 H 131.43166921515868 35.54688018919886 74.7075155442818 H 0.0 **** 0.06
33614 H 132.8643377032581 34.856172054454575 73.90673078675474 H 0.0 **** 0.06
33615 H 131.41268993488515 35.24719736430801 72.95247824606939 H 0.0 **** 0.06
33616 C 76.4342428243794 103.49717671172004 106.7309663203468 C 0.0 **** -0.24
33617 H 76.55621950712847 104.33588716459576 107.41760931729637 H 0.0 **** 0.06
33618 H 75.4557682714494 103.04143123467418 106.88468262089171 H 0.0 **** 0.06
33619 H 77.2137544532855 102.75882394241358 106.91827852074394 H 0.0 **** 0.06
33620 H 76.5114167933036 103.85508610529632 105.70456236418602 H 0.0 **** 0.06
33621 C 56.34210147525063 120.54137450809922 126.46123831663242 C 0.0 **** -0.24
33622 H 55.4708227488763 120.11083065555762 126.95441821908109 H 0.0 **** 0.06
33623 H 56.8056800009506 119.78978372493098 125.82213479315767 H 0.0 **** 0.06
33624 H 57.0588258890798 120.87201945336167 127.21349634029544 H 0.0 **** 0.06
33625 H 56.03245975669989 121.39395688201041 125.85555569818271 H 0.0 **** 0.06
33626 C 108.01021993602576 50.364787869748284 122.15440026012259 C 0.0 **** -0.24
33627 H 108.91164653704118 50.221784131169784 121.55756768075194 H 0.0 **** 0.06
33628 H 108.00155181147218 51.37589737110392 122.56114279583959 H 0.0 **** 0.06
33629 H 107.9988098813598 49.64341202526796 122.97176418544942 H 0.0 **** 0.06
33630 H 107.13209250934582 50.216350920161375 121.52628264656714 H 0.0 **** 0.06
33631 C 128.50186544345175 114.97131130646324 27.339260813256516 C 0.0 **** -0.24
33632 H 127.92902366169643 115.6348722856122 27.986894330017925 H 0.0 **** 0.06
33633 H 129.36451703611553 115.50670092244295 26.942743162263326 H 0.0 **** 0.06
33634 H 127.87136108968335 114.63432734852577 26.515635779414268 H 0.0 **** 0.06
33635 H 128.84225672118504 114.10874632710352 27.912511643826747 H 0.0 **** 0.06
33636 C 123.9257035422643 24.951025039159134 25.69826383875511 C 0.0 **** -0.24
33637 H 124.48908121894708 24.073006017110032 25.381964512189384 H 0.0 **** 0.06
33638 H 124.51669803615745 25.523342225098588 26.413931115053146 H 0.0 **** 0.06
33639 H 122.99266888104214 24.634525099168272 26.166015093543308 H 0.0 **** 0.06
33640 H 123.70372744769908 25.572105823562055 24.829988898286913 H 0.0 **** 0.06
33641 C 31.72264954695258 68.75524503944408 111.84226687149149 C 0.0 **** -0.24
33642 H 32.307210557621346 69.66294600233658 111.69420126679191 H 0.0 **** 0.06
33643 H 30.705258993772958 68.91721452213488 111.4857175387128 H 0.0 **** 0.06
33644 H 31.699908649998974 68.5066259516413 112.90335144328682 H 0.0 **** 0.06
33645 H 32.177729864872134 67.935643200045 111.28660891221557 H 0.0 **** 0.06
33646 C 22.079878187871145 30.471507964963138 55.11814718536843 C 0.0 **** -0.24
33647 H 21.24711387001406 29.777455277436275 55.229966242145636 H 0.0 **** 0.06
33648 H 21.733400263192408 31.48822784716188 55.306016382232485 H 0.0 **** 0.06
33649 H 22.477109405412534 30.403886857147427 54.10485805851407 H 0.0 **** 0.06
33650 H 22.863612391714184 30.216601134901538 55.833166330041294 H 0.0 **** 0.06
33651 C 91.32841560856892 96.26809162285883 118.04995796783686 C 0.0 **** -0.24
33652 H 91.89012421641101 95.54022687767929 117.46557422879272 H 0.0 **** 0.06
33653 H 91.0557904227748 97.111432161084 117.41568571181264 H 0.0 **** 0.06
33654 H 91.94269483101107 96.62029900613737 118.87844939402775 H 0.0 **** 0.06
33655 H 90.42445069558688 95.79984053330213 118.44126920140687 H 0.0 **** 0.06
33656 C 26.942012761326737 76.3776936727827 17.60984728190857 C 0.0 **** -0.24
33657 H 27.902646046010375 76.43557068217063 17.098038717571796 H 0.0 **** 0.06
33658 H 26.13837873621435 76.37397674093512 16.872555167487434 H 0.0 **** 0.06
33659 H 26.82849433316312 77.23958076300056 18.266972267267874 H 0.0 **** 0.06
33660 H 26.899352129360068 75.46228702530743 18.199009183601447 H 0.0 **** 0.06
33661 C 61.43941308806308 113.64642641349567 129.65881056624332 C 0.0 **** -0.24
33662 H 60.407263079309075 113.57470483752914 130.0017645521906 H 0.0 **** 0.06
33663 H 61.65644270853227 112.81512819928568 128.98688604961274 H 0.0 **** 0.06
33664 H 62.11093399108887 113.60610034734415 130.5160442072222 H 0.0 **** 0.06
33665 H 61.58081929795628 114.58916664467432 129.12964024074307 H 0.0 **** 0.06
33666 C 82.88525957662961 98.85444766581551 109.0023132534069 C 0.0 **** -0.24
33667 H 83.50085783123555 98.21145593235983 109.6320286814773 H 0.0 **** 0.06
33668 H 83.44021671388793 99.11984931925944 108.10198129117954 H 0.0 **** 0.06
33669 H 82.6274718124718 99.76057671265784 109.55095129500987 H 0.0 **** 0.06
33670 H 81.97329435020362 98.32522783705443 108.72566750693454 H 0.0 **** 0.06
33671 C 10.744239657775779 0.5402682499702678 59.109210167607245 C 0.0 **** -0.24
33672 H 11.038667749486223 -0.2690548093848406 58.44198959735206 H 0.0 **** 0.06
33673 H 9.734232340306875 0.35726780513437006 59.47719679798087 H 0.0 **** 0.06
33674 H 10.767610505569621 1.4851576854063069 58.56567557617353 H 0.0 **** 0.06
33675 H 11.435696501765705 0.5878369972598989 59.94987696389893 H 0.0 **** 0.06
33676 C 2.8684184792110727 12.236787369269678 60.55707976423142 C 0.0 **** -0.24
33677 H 2.201815393484935 12.540076109297559 61.36360147425148 H 0.0 **** 0.06
33678 H 3.8577720309986603 12.66543155791419 60.72393562209248 H 0.0 **** 0.06
33679 H 2.473070437105889 12.59279519228727 59.60567111236122 H 0.0 **** 0.06
33680 H 2.942154531497863 11.149183755048398 60.53587915991784 H 0.0 **** 0.06
33681 C 62.86003364031913 57.69194009232676 113.51093476337235 C 0.0 **** -0.24
33682 H 62.44510090628435 56.70382941321604 113.71008590723486 H 0.0 **** 0.06
33683 H 62.12786575432037 58.28986658417185 112.966779240992 H 0.0 **** 0.06
33684 H 63.76540715679148 57.59130994962618 112.91283660566609 H 0.0 **** 0.06
33685 H 63.09973309457416 58.181905086474444 114.4544465656343 H 0.0 **** 0.06
33686 C 50.961488151699584 70.43477307599845 130.824624089457 C 0.0 **** -0.24
33687 H 51.804232597174305 69.92855557498525 130.3528034149791 H 0.0 **** 0.06
33688 H 50.95201478393328 70.20725001040611 131.89083823213005 H 0.0 **** 0.06
33689 H 50.032264333983804 70.09130720627873 130.37035727356553 H 0.0 **** 0.06
33690 H 51.059782598767896 71.51158263314375 130.68266459453096 H 0.0 **** 0.06
33691 C 119.0123127680533 107.26222125226998 107.18614620820317 C 0.0 **** -0.24
33692 H 119.86707057288649 106.9758537293412 107.79923251272578 H 0.0 **** 0.06
33693 H 118.10025821227586 107.19080491672858 107.7786436776215 H 0.0 **** 0.06
33694 H 118.94166692127504 106.59330632783035 106.32728059469373 H 0.0 **** 0.06
33695 H 119.14116231855915 108.28678148183141 106.83865067765215 H 0.0 **** 0.06
33696 C 122.05262081754188 127.49843017510398 29.402328390821566 C 0.0 **** -0.24
33697 H 122.95270613546558 128.11210028459863 29.452483477029347 H 0.0 **** 0.06
33698 H 122.29344773415306 126.53733158869875 28.94738664502809 H 0.0 **** 0.06
33699 H 121.30084325324583 128.00799970370645 28.79987886093207 H 0.0 **** 0.06
33700 H 121.6654682994689 127.33857690274476 30.408649374317775 H 0.0 **** 0.06
33701 C 92.69425079250112 106.4297042086861 28.216746517595055 C 0.0 **** -0.24
33702 H 92.08307817344507 106.19105749695052 29.086312369188107 H 0.0 **** 0.06
33703 H 93.62028249918103 105.85543378056877 28.255215308069864 H 0.0 **** 0.06
33704 H 92.92589353809751 107.4947425619333 28.21674912130746 H 0.0 **** 0.06
33705 H 92.14759317842328 106.17669198603176 27.308282796529767 H 0.0 **** 0.06
33706 C 73.10328855206505 121.61445210117576 31.804753721369593 C 0.0 **** -0.24
33707 H 72.16977247783565 121.18139194382408 31.444908311904875 H 0.0 **** 0.06
33708 H 73.71967451391052 121.90586751438691 30.95432943690394 H 0.0 **** 0.06
33709 H 73.63707569185901 120.87825512592443 32.405158861557226 H 0.0 **** 0.06
33710 H 72.8842697049563 122.4917354498981 32.414286148652536 H 0.0 **** 0.06
33711 C 11.176770889170314 20.700398352562644 65.09329130531776 C 0.0 **** -0.24
33712 H 11.964320214509257 21.11634386854722 65.72245384036898 H 0.0 **** 0.06
33713 H 10.875871953111954 19.728000675890883 65.4825195507756 H 0.0 **** 0.06
33714 H 11.548083615275829 20.586588462599224 64.0747981867255 H 0.0 **** 0.06
33715 H 10.318928707498827 21.373973802883754 65.09347889286695 H 0.0 **** 0.06
33716 C 18.376276546411702 99.14418580482541 85.2479282552564 C 0.0 **** -0.24
33717 H 18.613038069818572 99.60017585767531 86.20896160005672 H 0.0 **** 0.06
33718 H 17.65391907531371 99.76510863001414 84.71956520081815 H 0.0 **** 0.06
33719 H 17.95363529726005 98.15277118275071 85.41119946330109 H 0.0 **** 0.06
33720 H 19.285726248485503 99.05705874209099 84.653356828982 H 0.0 **** 0.06
33721 C 76.06362737362213 106.08419692866211 33.31664612566464 C 0.0 **** -0.24
33722 H 75.02405679514864 105.8777107792757 33.06484763188658 H 0.0 **** 0.06
33723 H 76.53275034889698 105.17529872089025 33.69405805902927 H 0.0 **** 0.06
33724 H 76.10520887753708 106.8595598338015 34.08244796975869 H 0.0 **** 0.06
33725 H 76.59168364922205 106.42400873314645 32.42637116045069 H 0.0 **** 0.06
33726 C 33.213448667383716 71.48107881655653 103.26622872066127 C 0.0 **** -0.24
33727 H 34.03806551020176 72.19429915174688 103.28057842423675 H 0.0 **** 0.06
33728 H 32.271932781313055 72.0169095220781 103.1509061476599 H 0.0 **** 0.06
33729 H 33.2013197892837 70.92093525167913 104.20151646528558 H 0.0 **** 0.06
33730 H 33.34465990527627 70.79188681807565 102.43230423947074 H 0.0 **** 0.06
33731 C 92.6192459579521 104.55809889207626 85.30756677528859 C 0.0 **** -0.24
33732 H 93.69232416439789 104.73437690694294 85.22483016273887 H 0.0 **** 0.06
33733 H 92.44658376081766 103.59527043487236 85.78831846122625 H 0.0 **** 0.06
33734 H 92.1734921793674 104.55297587324475 84.31297269835142 H 0.0 **** 0.06
33735 H 92.1673528477031 105.34969778728151 85.9056711886725 H 0.0 **** 0.06
33736 C 49.31027169192714 54.91814928273834 91.05199921494147 C 0.0 **** -0.24
33737 H 48.243573439020906 55.12746708698171 90.97450769537613 H 0.0 **** 0.06
33738 H 49.798137189741794 55.16437205173156 90.1080491426192 H 0.0 **** 0.06
33739 H 49.4579646454398 53.85994359645633 91.27249111368886 H 0.0 **** 0.06
33740 H 49.74188899774251 55.51910082860684 91.85159395089869 H 0.0 **** 0.06
33741 C 9.170482508333013 8.06767382547281 101.69180014784132 C 0.0 **** -0.24
33742 H 9.935225274548937 7.960213514183579 102.45967106646015 H 0.0 **** 0.06
33743 H 8.18393772057064 7.980570831174077 102.14683696320196 H 0.0 **** 0.06
33744 H 9.296313362801765 7.286377306835902 100.9425115593709 H 0.0 **** 0.06
33745 H 9.26702038632894 9.044726698125828 101.21767546610623 H 0.0 **** 0.06
33746 C 118.58510898639983 36.271943573130024 112.63306042549956 C 0.0 **** -0.24
33747 H 118.68373800221568 36.9875817331287 111.81768116499359 H 0.0 **** 0.06
33748 H 117.9974789763815 36.715837646070725 113.4368023596748 H 0.0 **** 0.06
33749 H 119.57521704214842 36.00923303479764 113.00785417086433 H 0.0 **** 0.06
33750 H 118.08463570185046 35.37389242373797 112.26960928567908 H 0.0 **** 0.06
33751 C 52.674851957668054 133.56139058902485 46.86094242300749 C 0.0 **** -0.24
33752 H 53.5927937517349 133.0285732784058 46.61158191012299 H 0.0 **** 0.06
33753 H 51.9494595133383 132.86000953520366 47.272921147555905 H 0.0 **** 0.06
33754 H 52.266359676719745 134.02078791916733 45.96070899663698 H 0.0 **** 0.06
33755 H 52.89140173880696 134.33497193069292 47.59709330563476 H 0.0 **** 0.06
33756 C 57.445726373015475 47.7832850040848 118.19284362448707 C 0.0 **** -0.24
33757 H 58.05205176434826 48.62633684468511 118.5227544219496 H 0.0 **** 0.06
33758 H 56.40699697096028 48.09979174669019 118.09261976014648 H 0.0 **** 0.06
33759 H 57.511899795241476 46.979104758173435 118.92602866066389 H 0.0 **** 0.06
33760 H 57.81181509050333 47.42709009304912 117.22941207830462 H 0.0 **** 0.06
33761 C 41.12481026169753 56.25372771468395 115.65097692655951 C 0.0 **** -0.24
33762 H 41.549493995941205 55.99136780160097 114.68169312321689 H 0.0 **** 0.06
33763 H 40.799013611989096 57.294319331457274 115.63530070934914 H 0.0 **** 0.06
33764 H 41.87981812562052 56.12069828274478 116.42610232182511 H 0.0 **** 0.06
33765 H 40.27130182467022 55.608264092203314 115.85992704573783 H 0.0 **** 0.06
33766 C 104.75281837585545 62.49981410608355 136.3416142916222 C 0.0 **** -0.24
33767 H 105.83034336402132 62.337281169955105 136.3589056557704 H 0.0 **** 0.06
33768 H 104.35791120866864 62.21113319625614 135.36701551718852 H 0.0 **** 0.06
33769 H 104.54105033477806 63.55383842460273 136.52208896477407 H 0.0 **** 0.06
33770 H 104.28243791206543 61.89614355744071 137.11824688412844 H 0.0 **** 0.06
33771 C 64.50033654923355 101.51032329493778 8.886734006082975 C 0.0 **** -0.24
33772 H 65.41399331722057 101.50430705522874 8.290687641702789 H 0.0 **** 0.06
33773 H 64.45213600165651 102.43158918963542 9.468044560621962 H 0.0 **** 0.06
33774 H 64.50165915426395 100.65404450073329 9.561180400339794 H 0.0 **** 0.06
33775 H 63.6361542284601 101.45156114406112 8.225535127070145 H 0.0 **** 0.06
33776 C 35.77620362787637 54.456470965199856 41.711764533805194 C 0.0 **** -0.24
33777 H 34.97604219866607 55.19039199966892 41.801862335485566 H 0.0 **** 0.06
33778 H 36.35910285737345 54.43969810274507 42.63325315108642 H 0.0 **** 0.06
33779 H 36.42229967158074 54.72439298582748 40.876907260212846 H 0.0 **** 0.06
33780 H 35.345454084048704 53.470350712858874 41.53614342581966 H 0.0 **** 0.06
33781 C 48.867361921996206 81.89217144548073 118.35035044777112 C 0.0 **** -0.24
33782 H 48.87417131754421 82.9660533166707 118.53802153939075 H 0.0 **** 0.06
33783 H 49.412389623205286 81.38088698848179 119.1440658167497 H 0.0 **** 0.06
33784 H 49.3450156410714 81.68839739311986 117.39167002559148 H 0.0 **** 0.06
33785 H 47.8380407519345 81.53462886620088 118.32649073894439 H 0.0 **** 0.06
33786 C 31.150607294384763 61.7252158131904 44.13115847851725 C 0.0 **** -0.24
33787 H 30.321270923855543 62.261228746343164 43.669930368252096 H 0.0 **** 0.06
33788 H 31.322875951898922 60.791522855907715 43.593997309963356 H 0.0 **** 0.06
33789 H 30.908085889427085 61.50745737555431 45.17082796859208 H 0.0 **** 0.06
33790 H 32.04929314865039 62.34036172040027 44.08785372824261 H 0.0 **** 0.06
33791 C 21.66149344480519 47.18978870041374 95.22730686222562 C 0.0 **** -0.24
33792 H 21.370706798257295 46.47179216089499 95.9933604518656 H 0.0 **** 0.06
33793 H 22.398806821454727 47.88039917480579 95.63702290391404 H 0.0 **** 0.06
33794 H 20.783195659840075 47.7466277286651 94.90037663827862 H 0.0 **** 0.06
33795 H 22.09246359463426 46.659954390359246 94.37800574932027 H 0.0 **** 0.06
33796 C 119.68628548323517 41.37207346377397 63.53676060219641 C 0.0 **** -0.24
33797 H 119.49699181853094 42.31250554212227 64.0527493633054 H 0.0 **** 0.06
33798 H 120.09812972409696 41.57620888614741 62.547647270296295 H 0.0 **** 0.06
33799 H 118.75308410942455 40.81935492197806 63.43451378440284 H 0.0 **** 0.06
33800 H 120.39903105319479 40.7794734964923 64.11110817756037 H 0.0 **** 0.06
33801 C 10.940561870507281 129.6835076518321 105.43964313017017 C 0.0 **** -0.24
33802 H 10.773409008108786 128.63428652870587 105.19658756663429 H 0.0 **** 0.06
33803 H 10.169766531098219 130.0239204342308 106.13129460122391 H 0.0 **** 0.06
33804 H 10.898724820513394 130.277812590084 104.52715294415198 H 0.0 **** 0.06
33805 H 11.921187632516279 129.79624043126506 105.9031391348738 H 0.0 **** 0.06
33806 C 57.70391700818533 27.68258012971514 34.96688766822109 C 0.0 **** -0.24
33807 H 58.78050040071349 27.652298342820835 34.79902976637595 H 0.0 **** 0.06
33808 H 57.461705076122314 28.51839430137946 35.62257362149842 H 0.0 **** 0.06
33809 H 57.383464052857164 26.750295871066648 35.432497001329125 H 0.0 **** 0.06
33810 H 57.19076539304086 27.807272172392437 34.01303893602426 H 0.0 **** 0.06
33811 C 102.85180647162994 104.48973840190627 126.56393444421656 C 0.0 **** -0.24
33812 H 102.60239497518317 105.3826285747715 127.13795721927316 H 0.0 **** 0.06
33813 H 103.49703884196347 104.7637407061568 125.72973425851193 H 0.0 **** 0.06
33814 H 101.9367812027251 104.03657346178306 126.18264013255202 H 0.0 **** 0.06
33815 H 103.36907983463027 103.77738954418203 127.20601496608583 H 0.0 **** 0.06
33816 C 130.51178689705262 27.69798803338876 27.33159667581134 C 0.0 **** -0.24
33817 H 129.46285053594028 27.427379617744833 27.44643827052971 H 0.0 **** 0.06
33818 H 130.95736607808828 27.098394934019346 26.53703174457138 H 0.0 **** 0.06
33819 H 131.03908500483698 27.512256281147835 28.267009128869233 H 0.0 **** 0.06
33820 H 130.58748604775292 28.75500057306708 27.07506748774506 H 0.0 **** 0.06
33821 C 58.760275493829496 14.022783869135566 3.342765759328497 C 0.0 **** -0.24
33822 H 57.688545922403236 14.218407843134656 3.3119755768883543 H 0.0 **** 0.06
33823 H 59.25300206582497 14.792013343652926 3.938814146442212 H 0.0 **** 0.06
33824 H 59.16139144269961 14.035862567329502 2.328969902375807 H 0.0 **** 0.06
33825 H 58.938591672891704 13.045743150698428 3.791449187838346 H 0.0 **** 0.06
33826 C 54.61407360608753 93.54290265008481 52.17202270033738 C 0.0 **** -0.24
33827 H 54.75035570899733 94.18910105770794 53.03872785905065 H 0.0 **** 0.06
33828 H 55.537352717762104 92.99630426076352 51.977430845688446 H 0.0 **** 0.06
33829 H 54.36126465224601 94.14989998491548 51.302800104499966 H 0.0 **** 0.06
33830 H 53.807397426445945 92.8371099833002 52.36854314756877 H 0.0 **** 0.06
33831 C 44.95363995958033 131.41144664605588 93.54680930578655 C 0.0 **** -0.24
33832 H 44.573739002386674 132.4277739256894 93.65135684835684 H 0.0 **** 0.06
33833 H 44.33922667390718 130.7317670480947 94.13627683371374 H 0.0 **** 0.06
33834 H 45.98426409903459 131.37056819233902 93.89929603904022 H 0.0 **** 0.06
33835 H 44.917709812863706 131.116970595615 92.49782076668095 H 0.0 **** 0.06
33836 C 88.99164699324729 101.34910021887006 3.288793032105559 C 0.0 **** -0.24
33837 H 87.9649537302422 101.5193339768532 3.613756876191701 H 0.0 **** 0.06
33838 H 89.59183604696409 101.02294761510362 4.137951804540933 H 0.0 **** 0.06
33839 H 89.40359300733616 102.27503260551731 2.886815690188314 H 0.0 **** 0.06
33840 H 89.00502864204338 100.57955011958376 2.516014469921288 H 0.0 **** 0.06
33841 C 2.691858762145671 96.87302219125529 38.11247032197912 C 0.0 **** -0.24
33842 H 1.7784641787324063 97.11771573045932 37.571257405333824 H 0.0 **** 0.06
33843 H 3.296273015954114 97.77233645672368 38.23075101442737 H 0.0 **** 0.06
33844 H 3.255984392765697 96.12614889871666 37.553146930204434 H 0.0 **** 0.06
33845 H 2.436473189337903 96.47449636361387 39.0946446771531 H 0.0 **** 0.06
33846 C 53.455557164835156 41.59878804052713 36.68403999318906 C 0.0 **** -0.24
33847 H 53.034050469769724 41.17954095045502 37.59755903426435 H 0.0 **** 0.06
33848 H 52.99263463068992 42.56448542418207 36.48072900691102 H 0.0 **** 0.06
33849 H 53.265726350053626 40.92093549345021 35.852259845279036 H 0.0 **** 0.06
33850 H 54.53060769288062 41.73000678132815 36.807923305921975 H 0.0 **** 0.06
33851 C 20.230045125027686 88.73399599502318 24.469054548754222 C 0.0 **** -0.24
33852 H 20.853301194977092 87.84282107486922 24.404563197020053 H 0.0 **** 0.06
33853 H 19.603286422078526 88.80349165477588 23.579607543904025 H 0.0 **** 0.06
33854 H 20.865032686982573 89.61767516089492 24.535815396514096 H 0.0 **** 0.06
33855 H 19.59914874406313 88.67319763489849 25.3551320398133 H 0.0 **** 0.06
33856 C 45.88848697067124 116.30434468596394 106.740370471831 C 0.0 **** -0.24
33857 H 45.45874736776432 117.23339499003603 106.36455467669711 H 0.0 **** 0.06
33858 H 45.55293092399154 115.47296718436718 106.12070391959614 H 0.0 **** 0.06
33859 H 45.564452238405806 116.14445253124674 107.76906871941634 H 0.0 **** 0.06
33860 H 46.97580505632504 116.36761537375313 106.70623498711221 H 0.0 **** 0.06
33861 C 61.23259375233167 89.13408531414498 46.857156104208286 C 0.0 **** -0.24
33862 H 61.9436061482083 89.95575729784841 46.778051539685364 H 0.0 **** 0.06
33863 H 61.08448930506796 88.6853750653762 45.8749324818794 H 0.0 **** 0.06
33864 H 60.28043475324357 89.5118040366178 47.23127362827533 H 0.0 **** 0.06
33865 H 61.619514704024496 88.38337212778497 47.54625620754493 H 0.0 **** 0.06
33866 C 14.818056289982366 83.76722731916072 3.8301754352369244 C 0.0 **** -0.24
33867 H 14.234106327962877 84.59427449639318 4.234116611165945 H 0.0 **** 0.06
33868 H 15.718560230470388 83.63141295799058 4.428152959879981 H 0.0 **** 0.06
33869 H 15.094999556893185 83.98858101356343 2.7998342327920795 H 0.0 **** 0.06
33870 H 14.222172108762237 82.8544035195488 3.858101440147408 H 0.0 **** 0.06
33871 C 65.3668297592107 38.65362648278051 71.8942224736058 C 0.0 **** -0.24
33872 H 65.10966745829194 39.63484117392608 71.49464474060296 H 0.0 **** 0.06
33873 H 66.44917429548107 38.57615443373848 71.99558041215971 H 0.0 **** 0.06
33874 H 65.00932809314241 37.87999712085306 71.21419654707533 H 0.0 **** 0.06
33875 H 64.8995877025448 38.525302615779964 72.87010046903309 H 0.0 **** 0.06
33876 C 136.15478883190698 40.782646423120894 42.167830586087646 C 0.0 **** -0.24
33877 H 136.73506690382828 40.84701387312967 41.247696777821986 H 0.0 **** 0.06
33878 H 136.48352595441295 41.55823243360945 42.859554740370214 H 0.0 **** 0.06
33879 H 136.30405202292695 39.802311337442575 42.622843538297474 H 0.0 **** 0.06
33880 H 135.09800834723305 40.920432172716374 41.94109260179643 H 0.0 **** 0.06
33881 C 137.0191703923658 48.92864685020089 65.53692630259312 C 0.0 **** -0.24
33882 H 136.22065921120952 48.98095195554964 66.27819090541345 H 0.0 **** 0.06
33883 H 136.83559200304532 49.664857832311526 64.7532111051237 H 0.0 **** 0.06
33884 H 137.04366627648136 47.9309350996067 65.09987227020035 H 0.0 **** 0.06
33885 H 137.9751859617716 49.13930267502974 66.01704550789145 H 0.0 **** 0.06
33886 C 117.1953087262923 124.11859885163373 56.919652793364776 C 0.0 **** -0.24
33887 H 116.86121820162268 125.1257530935371 56.671391049692716 H 0.0 **** 0.06
33888 H 117.02679191794024 123.93168209822618 57.98108171744127 H 0.0 **** 0.06
33889 H 118.25782671576215 124.02340980492643 56.698789559033344 H 0.0 **** 0.06
33890 H 116.63434699048457 123.39402452375982 56.32926474914433 H 0.0 **** 0.06
33891 C 38.818946130910035 134.8854529383591 33.339409974455805 C 0.0 **** -0.24
33892 H 39.06677437731733 135.9070993731276 33.0531413254738 H 0.0 **** 0.06
33893 H 38.4582546784913 134.34083989579278 32.46631695928227 H 0.0 **** 0.06
33894 H 38.044003759825415 134.9004081068981 34.10470380623349 H 0.0 **** 0.06
33895 H 39.7092535537885 134.39243933442094 33.732177625598354 H 0.0 **** 0.06
33896 C 94.61682142682163 70.36554406232445 11.200230364728384 C 0.0 **** -0.24
33897 H 95.26931702296324 71.12908543943357 10.775935472770371 H 0.0 **** 0.06
33898 H 94.16087525532623 69.78979593175596 10.395556403600452 H 0.0 **** 0.06
33899 H 93.83737303387258 70.84336382993662 11.794130655925045 H 0.0 **** 0.06
33900 H 95.20209485438248 69.70027564167793 11.835792360123975 H 0.0 **** 0.06
33901 C 83.55877818637917 40.954144033448614 25.28648299887343 C 0.0 **** -0.24
33902 H 83.09122050998569 40.493668112803476 24.416234297653546 H 0.0 **** 0.06
33903 H 84.15055594341197 41.812367559982306 24.968817284432184 H 0.0 **** 0.06
33904 H 84.20635859751324 40.2273209934026 25.777037735339384 H 0.0 **** 0.06
33905 H 82.78676385514903 41.281420503548816 25.982531864298437 H 0.0 **** 0.06
33906 C 135.90872368804986 21.16521660611545 102.27141683991645 C 0.0 **** -0.24
33907 H 136.01943445798756 21.328044208183655 101.19955568352295 H 0.0 **** 0.06
33908 H 136.69490593374272 21.701451927916082 102.80313690711387 H 0.0 **** 0.06
33909 H 135.9873833786196 20.09876418794579 102.48663773733347 H 0.0 **** 0.06
33910 H 134.93534348750978 21.53032888016594 102.5960288912188 H 0.0 **** 0.06
33911 C 112.08021306376682 102.92502581014406 42.64652655646768 C 0.0 **** -0.24
33912 H 113.00256456930845 102.6009005872964 43.12902798124426 H 0.0 **** 0.06
33913 H 112.10803203978713 102.65489929817971 41.59045701485786 H 0.0 **** 0.06
33914 H 111.98050573534792 104.00595475690696 42.74398993814694 H 0.0 **** 0.06
33915 H 111.23009409762457 102.43732139308776 43.1235403997961 H 0.0 **** 0.06
33916 C 92.18878444954589 130.87700773422898 120.68478123595725 C 0.0 **** -0.24
33917 H 92.20132967731186 130.25167795517962 121.57728912438557 H 0.0 **** 0.06
33918 H 91.32154758817173 130.62426765359368 120.07481505928297 H 0.0 **** 0.06
33919 H 93.09931725999542 130.70906167441558 120.10959762667864 H 0.0 **** 0.06
33920 H 92.13342771738894 131.92589036598585 120.97816319516289 H 0.0 **** 0.06
33921 C 85.31790688270135 68.84327857259251 81.51220561272481 C 0.0 **** -0.24
33922 H 85.22972822799511 68.63364481306206 82.57774736561743 H 0.0 **** 0.06
33923 H 84.79312640736137 68.07342571695506 80.94605800135207 H 0.0 **** 0.06
33924 H 86.3700650981292 68.84840755337484 81.22860410202762 H 0.0 **** 0.06
33925 H 84.87935034422787 69.81730294655819 81.29572296935896 H 0.0 **** 0.06
33926 C 106.9037568954082 33.42218763305982 79.30853381681173 C 0.0 **** -0.24
33927 H 107.39791282217838 33.00757862500818 80.18810497825451 H 0.0 **** 0.06
33928 H 107.65447877273031 33.79877503147874 78.61415738361903 H 0.0 **** 0.06
33929 H 106.2468119987858 34.23671885344956 79.61170753325976 H 0.0 **** 0.06
33930 H 106.31572926951223 32.64279348982852 78.82232664565704 H 0.0 **** 0.06
33931 C 91.79759718606736 111.75614052771778 63.808984158293825 C 0.0 **** -0.24
33932 H 91.48042608751513 112.16960559616388 64.76693052667443 H 0.0 **** 0.06
33933 H 92.84678435395794 111.99829107965982 63.63882402231931 H 0.0 **** 0.06
33934 H 91.19158273245647 112.1844559691913 63.01093942121001 H 0.0 **** 0.06
33935 H 91.67004364155947 110.67396222461483 63.82111876822296 H 0.0 **** 0.06
33936 C 104.5438212334193 46.19535605638907 26.193101322203468 C 0.0 **** -0.24
33937 H 104.69235901158126 45.30612376959698 25.580877908860614 H 0.0 **** 0.06
33938 H 103.52370213987166 46.558427141178186 26.064487458053996 H 0.0 **** 0.06
33939 H 105.24687046022598 46.96935107572665 25.88469481579257 H 0.0 **** 0.06
33940 H 104.71263373174475 45.94739957216285 27.240964375900496 H 0.0 **** 0.06
33941 C 112.74798809675514 34.63820449141565 22.487948112119795 C 0.0 **** -0.24
33942 H 112.43286546441766 34.02772749231224 21.642196621497646 H 0.0 **** 0.06
33943 H 113.54974915882212 35.30758033599841 22.17371362865427 H 0.0 **** 0.06
33944 H 113.10652582291382 33.99219413656695 23.288955823636826 H 0.0 **** 0.06
33945 H 111.90339583619101 35.227218960119586 22.84590753036821 H 0.0 **** 0.06
33946 C 102.66012898331843 108.62666390058999 114.67463649191583 C 0.0 **** -0.24
33947 H 103.55398058740681 108.42253495325946 115.26580891877094 H 0.0 **** 0.06
33948 H 102.84967719027048 109.47065243963971 114.01102673522797 H 0.0 **** 0.06
33949 H 101.8320187759357 108.86707987335535 115.3410430390017 H 0.0 **** 0.06
33950 H 102.40786441495646 107.7471637456016 114.08272847587185 H 0.0 **** 0.06
33951 C 103.87205934284425 126.41745831852654 29.859420555016584 C 0.0 **** -0.24
33952 H 103.10211574639332 125.9307915499582 30.45785046852194 H 0.0 **** 0.06
33953 H 104.8526167443956 126.04835419090392 30.159696057711926 H 0.0 **** 0.06
33954 H 103.82596540033917 127.49597586003875 30.01677497933207 H 0.0 **** 0.06
33955 H 103.70682709477836 126.1968275544528 28.805097356162037 H 0.0 **** 0.06
33956 C 48.978553453445386 108.2926161778392 8.937948834400885 C 0.0 **** -0.24
33957 H 49.66315831887965 107.7388611891165 8.295471867764263 H 0.0 **** 0.06
33958 H 49.33774579941246 108.25640611877486 9.96633530995734 H 0.0 **** 0.06
33959 H 47.986596757665325 107.84435296515971 8.882975566549469 H 0.0 **** 0.06
33960 H 48.92782103597983 109.32951644804683 8.607105863849185 H 0.0 **** 0.06
33961 C 67.45859972225742 17.353588445373788 74.37380879275486 C 0.0 **** -0.24
33962 H 67.95188422166515 17.431038646893455 73.405043125328 H 0.0 **** 0.06
33963 H 66.902980049374 16.416255194476093 74.42462513381315 H 0.0 **** 0.06
33964 H 66.77179301392587 18.19042992901157 74.49984421932868 H 0.0 **** 0.06
33965 H 68.20720163578322 17.37543983714653 75.16626307470608 H 0.0 **** 0.06
33966 C 18.858601282513177 90.53559611104241 133.67536524347867 C 0.0 **** -0.24
33967 H 18.758529025199664 91.61974000251783 133.63328693860228 H 0.0 **** 0.06
33968 H 17.918727336740716 90.07179205669016 133.37345979868655 H 0.0 **** 0.06
33969 H 19.10285829764868 90.23224636524553 134.6936390404142 H 0.0 **** 0.06
33970 H 19.65366624130297 90.21794814616469 133.00065378585163 H 0.0 **** 0.06
33971 C 24.036350621172062 74.37216496640947 64.30336221374908 C 0.0 **** -0.24
33972 H 23.45106598074787 75.27848377991117 64.14937149817882 H 0.0 **** 0.06
33973 H 24.517306511861932 74.086566362136 63.36702573565128 H 0.0 **** 0.06
33974 H 23.37869064326108 73.5672938450683 64.6342443268974 H 0.0 **** 0.06
33975 H 24.796930855147735 74.55479489007122 65.06196886034395 H 0.0 **** 0.06
33976 C 53.43896347672802 97.2609849895473 135.11668556437394 C 0.0 **** -0.24
33977 H 54.12302332048091 96.4634428160189 135.40842640965727 H 0.0 **** 0.06
33978 H 53.54101090621879 98.09768870113612 135.80780442851417 H 0.0 **** 0.06
33979 H 52.415004070594534 96.8889789587596 135.14379067378394 H 0.0 **** 0.06
33980 H 53.6791835323541 97.59222446791237 134.10581670575658 H 0.0 **** 0.06
33981 C 130.2957503290455 15.176368473997627 86.30709273446126 C 0.0 **** -0.24
33982 H 130.70154307597122 16.063182982632213 86.79505829407753 H 0.0 **** 0.06
33983 H 129.40821379935664 15.451149008686798 85.73591965107994 H 0.0 **** 0.06
33984 H 130.02841082138994 14.43726195966002 87.06217365753793 H 0.0 **** 0.06
33985 H 131.04532938637885 14.756699803611866 85.63611545442603 H 0.0 **** 0.06
33986 C 0.13987014565640266 114.61159493870517 114.42638313947444 C 0.0 **** -0.24
33987 H -0.8501718266462603 115.0158400384511 114.63789168527614 H 0.0 **** 0.06
33988 H 0.12003565224185309 114.08342833310545 113.47214010109721 H 0.0 **** 0.06
33989 H 0.42750326631528424 113.92044729986765 115.21818813899966 H 0.0 **** 0.06
33990 H 0.8611950406802862 115.42678346059392 114.37445910563008 H 0.0 **** 0.06
33991 C 75.97682314168307 94.94369676486491 93.48989912936992 C 0.0 **** -0.24
33992 H 75.64758285443992 94.62168282284415 94.47776040998768 H 0.0 **** 0.06
33993 H 76.97928902194707 94.55992697566018 93.29884155094251 H 0.0 **** 0.06
33994 H 75.99008408775325 96.0334514495886 93.44941462004613 H 0.0 **** 0.06
33995 H 75.29084228546839 94.5610459583063 92.7349947447139 H 0.0 **** 0.06
33996 C 46.32558190512283 106.68845247647528 16.15597633116088 C 0.0 **** -0.24
33997 H 45.32486173928616 107.09912381212416 16.296739782398177 H 0.0 **** 0.06
33998 H 46.98644621885174 107.06861281015415 16.9345375103919 H 0.0 **** 0.06
33999 H 46.70499459286415 106.98726444355731 15.179203867061993 H 0.0 **** 0.06
34000 H 46.28293723099253 105.60175732333133 16.212545199243962 H 0.0 **** 0.06
34001 C 63.32937913825113 60.03130952970926 72.29290908683765 C 0.0 **** -0.24
34002 H 63.85083625242848 60.54170134527055 71.48312779701916 H 0.0 **** 0.06
34003 H 62.31761966933328 59.78240130439812 71.97246011518216 H 0.0 **** 0.06
34004 H 63.28389768771265 60.684516561539 73.16492635856082 H 0.0 **** 0.06
34005 H 63.86405412915721 59.117399975656085 72.55152277113133 H 0.0 **** 0.06
34006 C 68.30700196579082 99.09749397174065 62.70992664420247 C 0.0 **** -0.24
34007 H 68.02268893700361 98.11597324396153 62.330422716911755 H 0.0 **** 0.06
34008 H 67.6284971329987 99.8515678090452 62.31017055106831 H 0.0 **** 0.06
34009 H 69.32663624035928 99.32524790060867 62.400430086353325 H 0.0 **** 0.06
34010 H 68.24893987190525 99.0965216792433 63.79860700715281 H 0.0 **** 0.06
34011 C 55.09839409589516 55.77417490478486 57.43428836837211 C 0.0 **** -0.24
34012 H 56.1136755409628 56.15264336998993 57.32290527721159 H 0.0 **** 0.06
34013 H 54.38758480665497 56.57587635969517 57.23467629387278 H 0.0 **** 0.06
34014 H 54.95726689415116 55.40717265687488 58.45038259444735 H 0.0 **** 0.06
34015 H 54.93552627033107 54.959047068813334 56.72822476759029 H 0.0 **** 0.06
34016 C 103.28052510798136 28.799025182062607 101.72945354414637 C 0.0 **** -0.24
34017 H 103.0016561249787 27.86998478843205 101.2325832557533 H 0.0 **** 0.06
34018 H 103.1283740625122 28.6965132905201 102.8040504210658 H 0.0 **** 0.06
34019 H 102.66267237759041 29.61337877429594 101.35003645460432 H 0.0 **** 0.06
34020 H 104.33027753854009 29.016841180148873 101.53022469497998 H 0.0 **** 0.06
34021 C 0.050402409841098006 94.84300404270901 100.33539355082567 C 0.0 **** -0.24
34022 H 0.9681862765974643 95.42243888608883 100.44180857797556 H 0.0 **** 0.06
34023 H -0.5823916180581534 95.00260779312951 101.20848313779709 H 0.0 **** 0.06
34024 H 0.2965965272702533 93.7848487784068 100.25288349615664 H 0.0 **** 0.06
34025 H -0.47981837597319554 95.16417075643211 99.4393316775541 H 0.0 **** 0.06
34026 C 64.92988854952094 120.72575293910518 39.2734110546609 C 0.0 **** -0.24
34027 H 65.40352570099813 120.25583722485413 40.13584028118975 H 0.0 **** 0.06
34028 H 64.17530277139275 121.43476373574649 39.616567194967956 H 0.0 **** 0.06
34029 H 64.45758821318213 119.96178595556025 38.65645087161392 H 0.0 **** 0.06
34030 H 65.68295820610766 121.2516427140448 38.68700669509982 H 0.0 **** 0.06
34031 C 131.11662250173302 113.48415821942154 83.71494018210667 C 0.0 **** -0.24
34032 H 131.43760184774604 112.76089250131051 84.46515219346662 H 0.0 **** 0.06
34033 H 131.5520577211698 113.22476613388065 82.74985366488973 H 0.0 **** 0.06
34034 H 131.44626345629032 114.48031502046192 84.00708132761007 H 0.0 **** 0.06
34035 H 130.02842688870547 113.46877804646272 83.6386124766721 H 0.0 **** 0.06
34036 C 97.02137798773384 14.02237247944322 119.42759837736973 C 0.0 **** -0.24
34037 H 96.56187768888844 14.063946354176778 118.4403951969636 H 0.0 **** 0.06
34038 H 96.24888007840946 13.877742029824333 120.1829652298482 H 0.0 **** 0.06
34039 H 97.55000111555421 14.955560342330443 119.62103582072811 H 0.0 **** 0.06
34040 H 97.72683413548992 13.191500377875514 119.46493866296534 H 0.0 **** 0.06
34041 C 33.38478935281205 31.332404711674997 4.730916359608102 C 0.0 **** -0.24
34042 H 33.28650886369269 32.07242012560283 5.524081610507039 H 0.0 **** 0.06
34043 H 32.45052355965106 31.27167306154888 4.172402104009564 H 0.0 **** 0.06
34044 H 33.61184646597769 30.359951344227795 5.167709872635982 H 0.0 **** 0.06
34045 H 34.191826426911916 31.62529521723127 4.058746431779042 H 0.0 **** 0.06
34046 C 106.67445089946722 125.80821184787999 115.29031181063914 C 0.0 **** -0.24
34047 H 106.0159396447813 126.67335482656642 115.2004023415949 H 0.0 **** 0.06
34048 H 106.65096490308099 125.44094544443908 116.31621182997424 H 0.0 **** 0.06
34049 H 107.69188210461556 126.09875516236104 115.0308945206393 H 0.0 **** 0.06
34050 H 106.3359839215338 125.02333201246535 114.61425797442524 H 0.0 **** 0.06
34051 C 64.04370149552113 69.79030052865343 101.52825156735793 C 0.0 **** -0.24
34052 H 64.49155385510306 70.29091941646107 102.38683765332812 H 0.0 **** 0.06
34053 H 64.7127047310548 69.00368057731811 101.1773942648689 H 0.0 **** 0.06
34054 H 63.883756661075836 70.51373107844267 100.72935363376814 H 0.0 **** 0.06
34055 H 63.08922398717266 69.35284710949259 101.81970176627783 H 0.0 **** 0.06
34056 C 98.886260979508 59.73692543409665 50.69289013353493 C 0.0 **** -0.24
34057 H 98.62277707392867 58.95305377805296 49.9840337028927 H 0.0 **** 0.06
34058 H 98.54027239776201 59.458337386156416 51.68899039409739 H 0.0 **** 0.06
34059 H 98.4122411830736 60.67224584754386 50.39203616886479 H 0.0 **** 0.06
34060 H 99.96830166863546 59.86602722475985 50.706295953929256 H 0.0 **** 0.06
34061 C 111.29217270643764 135.42675717239692 104.0089498197724 C 0.0 **** -0.24
34062 H 111.17943823023907 134.6687841392785 104.78412262749889 H 0.0 **** 0.06
34063 H 112.04902848501104 135.1050272352449 103.29387414547293 H 0.0 **** 0.06
34064 H 111.59718185636703 136.36874233046257 104.46325630236262 H 0.0 **** 0.06
34065 H 110.34119467080606 135.56324545750408 103.49427246903412 H 0.0 **** 0.06
34066 C 81.64590167926939 69.86555673141822 91.42036567430853 C 0.0 **** -0.24
34067 H 80.7739528448386 69.61513377729727 92.0249098443531 H 0.0 **** 0.06
34068 H 81.36488236062901 69.87880037297305 90.36699307168566 H 0.0 **** 0.06
34069 H 82.42458987156095 69.11993723031763 91.57931628265308 H 0.0 **** 0.06
34070 H 82.01808134117242 70.84780950847312 91.70970422089495 H 0.0 **** 0.06
34071 C 92.62870921276316 113.37479750133127 35.648440333246455 C 0.0 **** -0.24
34072 H 91.85390239981388 114.13479303354461 35.74223900735614 H 0.0 **** 0.06
34073 H 92.79697814647898 112.90566099680802 36.61840302336722 H 0.0 **** 0.06
34074 H 93.55367386509 113.83843304490233 35.30428400782668 H 0.0 **** 0.06
34075 H 92.31110253490742 112.61950832144998 34.92966964066741 H 0.0 **** 0.06
34076 C 87.711544050385 29.249258031251202 12.497319325838163 C 0.0 **** -0.24
34077 H 87.43410919100482 28.72796190370744 11.581093746588152 H 0.0 **** 0.06
34078 H 88.75329367829549 29.03431253665923 12.735212591656477 H 0.0 **** 0.06
34079 H 87.07471459630736 28.910307686293976 13.31412526922233 H 0.0 **** 0.06
34080 H 87.5832929296213 30.322125724814043 12.357110267878 H 0.0 **** 0.06
34081 C 44.87122518647618 104.62632414370678 25.41393852275661 C 0.0 **** -0.24
34082 H 43.881079486593435 104.73709545687501 25.855347905483967 H 0.0 **** 0.06
34083 H 44.98152179476372 105.33023603710626 24.588602954408373 H 0.0 **** 0.06
34084 H 44.99077273499525 103.60871235542187 25.042433904048664 H 0.0 **** 0.06
34085 H 45.62989283230222 104.82870048464495 26.169209486737998 H 0.0 **** 0.06
34086 C 21.02751740356979 5.515890891792424 100.08070401042278 C 0.0 **** -0.24
34087 H 21.949743769536667 5.830116426440497 99.59247160437059 H 0.0 **** 0.06
34088 H 21.1335202188273 4.487923555280247 100.42936241859132 H 0.0 **** 0.06
34089 H 20.201979559836218 5.57545754805011 99.37011606256726 H 0.0 **** 0.06
34090 H 20.82409279305449 6.169335967462587 100.92915437971146 H 0.0 **** 0.06
34091 C 39.292546582890836 69.01825308879376 45.3775996668503 C 0.0 **** -0.24
34092 H 38.86156457266893 68.52267799806646 44.5083575581956 H 0.0 **** 0.06
34093 H 38.591632882774164 68.96404832645226 46.21171834978918 H 0.0 **** 0.06
34094 H 39.49211596689988 70.06327460961862 45.13822089857942 H 0.0 **** 0.06
34095 H 40.22402559688973 68.52458714410386 45.65377501256677 H 0.0 **** 0.06
34096 C 17.698609717136492 96.00808114995088 122.22088816705683 C 0.0 **** -0.24
34097 H 17.6578953940201 94.94197508468032 122.44543502013093 H 0.0 **** 0.06
34098 H 16.85327856371498 96.27825974280441 121.58753529593888 H 0.0 **** 0.06
34099 H 18.629898422659892 96.23457007570669 121.70096392923159 H 0.0 **** 0.06
34100 H 17.6535371935247 96.57652369861623 123.150607837076 H 0.0 **** 0.06
34101 C 68.42076547846204 29.216781882133873 34.58335235333965 C 0.0 **** -0.24
34102 H 68.17987887755737 30.090486148315307 35.188095700681544 H 0.0 **** 0.06
34103 H 69.49747778614454 29.17460319056977 34.419350460445585 H 0.0 **** 0.06
34104 H 67.90930140845131 29.286677274334068 33.62304395103686 H 0.0 **** 0.06
34105 H 68.0967482992489 28.3149116066337 35.10209497295452 H 0.0 **** 0.06
34106 C 19.493264071093535 135.26006355773865 91.03670776093901 C 0.0 **** -0.24
34107 H 19.552024210201523 135.99002094537852 91.84471863320744 H 0.0 **** 0.06
34108 H 18.49925648753546 134.81377141702288 91.02324378391603 H 0.0 **** 0.06
34109 H 20.240535338662824 134.48264564782386 91.19606933683593 H 0.0 **** 0.06
34110 H 19.682111699919716 135.7560249429295 90.08488796909603 H 0.0 **** 0.06
34111 C 24.28896064317115 128.3126705888522 13.545771395378381 C 0.0 **** -0.24
34112 H 24.11793346600865 127.50671604628099 12.833617659673166 H 0.0 **** 0.06
34113 H 25.302308024508477 128.23804359493772 13.942052889090803 H 0.0 **** 0.06
34114 H 23.57171446485583 128.23450087135845 14.362815749955416 H 0.0 **** 0.06
34115 H 24.164541819958117 129.27282583748985 13.04537365191237 H 0.0 **** 0.06
34116 C 32.2996457200112 47.45466069247411 9.00203093585992 C 0.0 **** -0.24
34117 H 32.84420328807607 46.896705499211635 8.239933734344845 H 0.0 **** 0.06
34118 H 32.99144984055155 48.09811911508059 9.54489679725026 H 0.0 **** 0.06
34119 H 31.829028500674553 46.758410730581744 9.695691121499408 H 0.0 **** 0.06
34120 H 31.532140452480718 48.06632722845481 8.524946142126737 H 0.0 **** 0.06
34121 C 82.36017633292369 24.641187706221046 89.54797973537599 C 0.0 **** -0.24
34122 H 81.36879165985482 24.87360218088355 89.93749356825334 H 0.0 **** 0.06
34123 H 82.55014135425381 25.24269558115145 88.65835527201358 H 0.0 **** 0.06
34124 H 82.40892674998256 23.58329635062239 89.28860091933399 H 0.0 **** 0.06
34125 H 83.10994914384341 24.864877036745895 90.30673916262575 H 0.0 **** 0.06
34126 C 119.4292482237897 46.41844589158188 50.26633721746212 C 0.0 **** -0.24
34127 H 118.51681063347806 46.771943362142 50.74740923123858 H 0.0 **** 0.06
34128 H 119.95895284355755 45.74582991950501 50.9420242004189 H 0.0 **** 0.06
34129 H 120.06655019963443 47.26855039121983 50.0262507380166 H 0.0 **** 0.06
34130 H 119.17315692911286 45.88582194873919 49.349662731155846 H 0.0 **** 0.06
34131 C 96.65013977886869 80.69550911859494 73.09669506261201 C 0.0 **** -0.24
34132 H 96.20793976612843 81.6877660209056 73.19056991875885 H 0.0 **** 0.06
34133 H 97.29498633783021 80.5028895864873 73.95435683284882 H 0.0 **** 0.06
34134 H 97.23839212954698 80.64527293574889 72.1806248997284 H 0.0 **** 0.06
34135 H 95.85771127207833 79.94752232408555 73.06204101414602 H 0.0 **** 0.06
34136 C 59.89423892033436 123.8947859031386 77.1872088706406 C 0.0 **** -0.24
34137 H 59.81765585361079 122.80795014765769 77.20106880296584 H 0.0 **** 0.06
34138 H 60.688507946419406 124.21116089771797 77.86505453654023 H 0.0 **** 0.06
34139 H 58.94781830320507 124.33021831168563 77.50779847493374 H 0.0 **** 0.06
34140 H 60.124829837062094 124.2295443943674 76.17613092297681 H 0.0 **** 0.06
34141 C 59.04451881179145 97.48083795262879 117.71844596166886 C 0.0 **** -0.24
34142 H 59.29761474370672 98.1198917967175 118.56494034266254 H 0.0 **** 0.06
34143 H 57.979646866578776 97.24946831514377 117.74505229834975 H 0.0 **** 0.06
34144 H 59.61912414857966 96.55728725682422 117.77674525445227 H 0.0 **** 0.06
34145 H 59.28163868981194 97.99908605233306 116.78956108680993 H 0.0 **** 0.06
34146 C 64.31745597889677 92.40590781311056 41.58133935445528 C 0.0 **** -0.24
34147 H 64.1300873202811 91.35934780445922 41.819721725993915 H 0.0 **** 0.06
34148 H 65.38875904157868 92.56450407731245 41.45587598514053 H 0.0 **** 0.06
34149 H 63.95045714188073 93.03368320053755 42.393346731540134 H 0.0 **** 0.06
34150 H 63.8001293825734 92.66632104329017 40.65860312580427 H 0.0 **** 0.06
34151 C 130.5193104565912 34.518663070296554 88.19812566992904 C 0.0 **** -0.24
34152 H 130.0343269257886 34.693779743606825 89.15852100182516 H 0.0 **** 0.06
34153 H 131.48631923468218 35.02359827328763 88.18323852871724 H 0.0 **** 0.06
34154 H 129.89219608597506 34.91016409272632 87.3978335189224 H 0.0 **** 0.06
34155 H 130.66675645384896 33.448634830965545 88.05538373773528 H 0.0 **** 0.06
34156 C 57.66498696744094 77.24104908586713 116.72565525273149 C 0.0 **** -0.24
34157 H 56.85078486024709 77.68912999826449 117.29489638748964 H 0.0 **** 0.06
34158 H 57.858799348485206 76.23510025694077 117.09927648086295 H 0.0 **** 0.06
34159 H 58.56194051917241 77.84958970491579 116.83483694079689 H 0.0 **** 0.06
34160 H 57.385426044605694 77.19058017508496 115.67262310236447 H 0.0 **** 0.06
34161 C 70.04741730192735 18.273387638682543 39.48739619638466 C 0.0 **** -0.24
34162 H 69.33574393435556 17.632356977645564 38.967187808001036 H 0.0 **** 0.06
34163 H 70.9969093480249 18.270356613496674 38.95160915589989 H 0.0 **** 0.06
34164 H 70.19992436810392 17.900754896214927 40.4999945701247 H 0.0 **** 0.06
34165 H 69.65653772551413 19.29047257448014 39.5291992271488 H 0.0 **** 0.06
34166 C 44.16478250158295 37.436138717319764 3.0068247257592056 C 0.0 **** -0.24
34167 H 43.50547431736422 36.955362177896575 3.729868101659733 H 0.0 **** 0.06
34168 H 44.791913414682 38.16776792983129 3.517414217893556 H 0.0 **** 0.06
34169 H 43.564602037576975 37.93772328051672 2.247518852038091 H 0.0 **** 0.06
34170 H 44.79508938343176 36.6838450311044 2.5333772915325348 H 0.0 **** 0.06
34171 C 90.44065315824596 16.865770138418583 102.91777237249228 C 0.0 **** -0.24
34172 H 89.52999278078956 17.464654377838713 102.94073809938848 H 0.0 **** 0.06
34173 H 91.28042756024557 17.492772944171236 102.62080027777466 H 0.0 **** 0.06
34174 H 90.32148683213151 16.05265171816046 102.20102839539774 H 0.0 **** 0.06
34175 H 90.62752867998375 16.451026140474397 103.90844135319848 H 0.0 **** 0.06
34176 C 35.79337293075767 108.93335976670232 52.89512571931658 C 0.0 **** -0.24
34177 H 35.12830196307202 109.45983529788674 53.58013171483515 H 0.0 **** 0.06
34178 H 36.14002005619914 108.01149424189646 53.36309134591431 H 0.0 **** 0.06
34179 H 36.64878078210407 109.56577522731766 52.66128587283839 H 0.0 **** 0.06
34180 H 35.25530321726957 108.69581280664437 51.977877961380784 H 0.0 **** 0.06
34181 C 30.8243267989767 18.147297897574084 134.48380378303335 C 0.0 **** -0.24
34182 H 30.45791007280326 18.092851578844872 135.50943114760446 H 0.0 **** 0.06
34183 H 31.226410604542423 17.17773366859553 134.19036065627148 H 0.0 **** 0.06
34184 H 31.60814484396741 18.90191808560639 134.4182926652862 H 0.0 **** 0.06
34185 H 30.003307756993706 18.416709658088145 133.8197088514668 H 0.0 **** 0.06
34186 C 17.221676136948815 110.16757264786514 123.42818878165798 C 0.0 **** -0.24
34187 H 18.078739653111825 109.56322786815835 123.12907403444018 H 0.0 **** 0.06
34188 H 16.565639578875846 109.57600909023523 124.0664110259076 H 0.0 **** 0.06
34189 H 16.67618542494114 110.48694801617623 122.54072764175072 H 0.0 **** 0.06
34190 H 17.56935533566434 111.04333443691488 123.97628414947081 H 0.0 **** 0.06
34191 C 93.83384189958514 41.71105952272114 36.99323721559377 C 0.0 **** -0.24
34192 H 93.11386774833976 42.50737882865056 37.18599332508755 H 0.0 **** 0.06
34193 H 93.57421684018847 40.835752211948034 37.58907026642001 H 0.0 **** 0.06
34194 H 94.83316569919408 42.05144058547634 37.261695157934 H 0.0 **** 0.06
34195 H 93.81140617360613 41.449974777991116 35.93494307796955 H 0.0 **** 0.06
34196 C 61.493793828437944 114.90431755752161 95.99360049521499 C 0.0 **** -0.24
34197 H 62.327675351079606 114.35991830335468 96.43620539591339 H 0.0 **** 0.06
34198 H 61.06824633087773 114.318199628304 95.17901092625254 H 0.0 **** 0.06
34199 H 61.84843090939076 115.86004929699266 95.60678596872535 H 0.0 **** 0.06
34200 H 60.73086402266104 115.08075902353494 96.75189370169522 H 0.0 **** 0.06
34201 C 98.68928419331763 3.686927035827239 115.98733512597786 C 0.0 **** -0.24
34202 H 98.19479241665869 2.9249654609755 116.59018214058955 H 0.0 **** 0.06
34203 H 98.07576736500195 4.587579650925761 115.96563195421788 H 0.0 **** 0.06
34204 H 98.82449573581727 3.3151072638351025 114.97183084588622 H 0.0 **** 0.06
34205 H 99.66169608374341 3.9194968568901913 116.422429938931 H 0.0 **** 0.06
34206 C 74.9706377249274 51.7358378302749 118.36598667136903 C 0.0 **** -0.24
34207 H 74.8955266916177 50.70285027579854 118.02521381360316 H 0.0 **** 0.06
34208 H 74.6367530033237 51.80058985488898 119.40181062023241 H 0.0 **** 0.06
34209 H 74.34306738579524 52.371264289554404 117.74117810768416 H 0.0 **** 0.06
34210 H 76.00648951660948 52.066598429083285 118.29688160323155 H 0.0 **** 0.06
34211 C 28.62555087344706 79.6388448850144 108.81989000628289 C 0.0 **** -0.24
34212 H 27.876618708976636 79.7392087819279 109.60510891655463 H 0.0 **** 0.06
34213 H 29.622075005644255 79.67046107725969 109.26322311820479 H 0.0 **** 0.06
34214 H 28.518216758688382 80.45694324619116 108.10773586923409 H 0.0 **** 0.06
34215 H 28.48735177937946 78.68729644464686 108.30510490079246 H 0.0 **** 0.06
34216 C 124.07560653540486 125.39712633242786 88.98157365149666 C 0.0 **** -0.24
34217 H 124.0843544895742 124.66823576286043 89.79246335405105 H 0.0 **** 0.06
34218 H 125.00860674472193 125.96081569007572 88.98938315283021 H 0.0 **** 0.06
34219 H 123.23608252541362 126.07938102992325 89.11601708785298 H 0.0 **** 0.06
34220 H 123.97255704512258 124.87807049730384 88.02787455172387 H 0.0 **** 0.06
34221 C 44.37893501834532 132.38232946892185 73.48853396761893 C 0.0 **** -0.24
34222 H 43.66531273128417 133.14691798636852 73.79428657476109 H 0.0 **** 0.06
34223 H 43.88529131746041 131.66794551978546 72.82948575679973 H 0.0 **** 0.06
34224 H 44.754401256699474 131.86366087570636 74.3709494488129 H 0.0 **** 0.06
34225 H 45.210102873055774 132.8507249810104 72.96155797596313 H 0.0 **** 0.06
34226 C 100.81020680832904 96.20106193423459 103.85751755625618 C 0.0 **** -0.24
34227 H 100.26804714582244 97.10273847926192 104.14339759639424 H 0.0 **** 0.06
34228 H 100.30849245112 95.32790121688271 104.27653569604931 H 0.0 **** 0.06
34229 H 101.82892267504343 96.2534834800698 104.24107720641041 H 0.0 **** 0.06
34230 H 100.83397122274425 96.11984818766632 102.77078638259827 H 0.0 **** 0.06
34231 C 123.54869376841273 100.35479570045518 59.941783652837074 C 0.0 **** -0.24
34232 H 123.86733414878377 100.62949912781178 58.93670039540352 H 0.0 **** 0.06
34233 H 123.83993669506752 99.32408287446493 60.146013246370174 H 0.0 **** 0.06
34234 H 122.4660731380637 100.44945553189493 60.01762617135769 H 0.0 **** 0.06
34235 H 124.02304673839389 101.01632827305414 60.66619786108602 H 0.0 **** 0.06
34236 C 117.4097190811564 38.939126334258106 22.939485366410864 C 0.0 **** -0.24
34237 H 116.51748306292376 39.500543778657175 23.214378698962832 H 0.0 **** 0.06
34238 H 117.25266118860185 38.457156012833764 21.974771176670373 H 0.0 **** 0.06
34239 H 117.60993949989532 38.18117428314832 23.69638992137665 H 0.0 **** 0.06
34240 H 118.26003915665993 39.61828424553818 22.87254215135343 H 0.0 **** 0.06
34241 C 31.495577688523582 85.72792860973044 26.962256379153473 C 0.0 **** -0.24
34242 H 31.745925963276008 86.75198922092034 26.685127039039784 H 0.0 **** 0.06
34243 H 31.93270369415579 85.49898667721129 27.934761166899094 H 0.0 **** 0.06
34244 H 31.892650083927094 85.04156652828584 26.214072786710204 H 0.0 **** 0.06
34245 H 30.412090486712103 85.62035433930953 27.015757169081667 H 0.0 **** 0.06
34246 C 96.05381028039324 120.60378114902592 63.67230860296229 C 0.0 **** -0.24
34247 H 96.35503582916368 120.77353647432831 64.70544426950744 H 0.0 **** 0.06
34248 H 95.24930976224869 119.86827179108643 63.64452366802948 H 0.0 **** 0.06
34249 H 96.90561801642679 120.23305115711192 63.100703851326784 H 0.0 **** 0.06
34250 H 95.70567120108694 121.54085854650681 63.23621886597738 H 0.0 **** 0.06
34251 C 119.94407390526021 32.44011525925855 78.02215054763069 C 0.0 **** -0.24
34252 H 120.51303982643857 31.59636870917506 78.41128491145994 H 0.0 **** 0.06
34253 H 119.17337498404669 32.72088373669354 78.7392922702431 H 0.0 **** 0.06
34254 H 119.4776095825345 32.15852529522263 77.07715410692808 H 0.0 **** 0.06
34255 H 120.61403164291698 33.284874170850365 77.85825079318613 H 0.0 **** 0.06
34256 C 110.67326040790067 112.0844563904231 101.51357685859205 C 0.0 **** -0.24
34257 H 110.17530191056187 112.02639578964346 100.54535870403234 H 0.0 **** 0.06
34258 H 110.21684313828393 112.87548935451198 102.10990668319658 H 0.0 **** 0.06
34259 H 111.73049510818225 112.30479883279656 101.36570846719309 H 0.0 **** 0.06
34260 H 110.57006396457393 111.13144029439928 102.03244088409363 H 0.0 **** 0.06
34261 C 1.0175454425639714 121.54738109369491 75.81533499725259 C 0.0 **** -0.24
34262 H 2.028323245506897 121.14036290579526 75.79527327353289 H 0.0 **** 0.06
34263 H 1.0636640031150932 122.63552167119543 75.77086898538279 H 0.0 **** 0.06
34264 H 0.521432903864536 121.2409762811136 76.7361484922988 H 0.0 **** 0.06
34265 H 0.4573670777965617 121.17140024759196 74.95885517061447 H 0.0 **** 0.06
34266 C 95.05269618185267 13.013650924026678 19.250050292480154 C 0.0 **** -0.24
34267 H 94.45415715093536 13.590894881492972 18.544914468349873 H 0.0 **** 0.06
34268 H 95.90329586441194 13.612344272902476 19.57883990064127 H 0.0 **** 0.06
34269 H 95.41238609156353 12.107096404718163 18.763418880859717 H 0.0 **** 0.06
34270 H 94.44127318904162 12.745961026543057 20.111604173057742 H 0.0 **** 0.06
34271 C 32.05501655788669 114.11128678790647 97.1983541917955 C 0.0 **** -0.24
34272 H 33.107990420669125 114.3105778270197 97.39788914196461 H 0.0 **** 0.06
34273 H 31.88049180366602 113.03496792012967 97.21456890765104 H 0.0 **** 0.06
34274 H 31.789316642517804 114.50763003422384 96.21764898065108 H 0.0 **** 0.06
34275 H 31.44352675116744 114.59053252889152 97.96215046430754 H 0.0 **** 0.06
34276 C 67.13267816643776 87.24509151868337 10.201056124622141 C 0.0 **** -0.24
34277 H 67.41028631126696 88.28591629604755 10.035328785874071 H 0.0 **** 0.06
34278 H 67.68400526751606 86.85407405078841 11.056319733054352 H 0.0 **** 0.06
34279 H 67.37327489853647 86.65874007825843 9.31376062496662 H 0.0 **** 0.06
34280 H 66.06190965961432 87.18186942948175 10.398170035941575 H 0.0 **** 0.06
34281 C 74.5643999634054 118.87748226018063 11.279143992276431 C 0.0 **** -0.24
34282 H 74.68694641466072 118.81579477773866 12.36051029795442 H 0.0 **** 0.06
34283 H 73.52559290016386 119.10989336989542 11.043844094775011 H 0.0 **** 0.06
34284 H 74.83398157086386 117.92231442529402 10.82849975803316 H 0.0 **** 0.06
34285 H 75.2108286174598 119.66053476140927 10.883745707059518 H 0.0 **** 0.06
34286 C 87.61535656406815 96.59196142422698 40.37629350869406 C 0.0 **** -0.24
34287 H 86.72714988353404 96.17150368364167 39.904512573520634 H 0.0 **** 0.06
34288 H 88.4964870842369 96.04357718585769 40.044045457236024 H 0.0 **** 0.06
34289 H 87.52307365150477 96.51072056202094 41.459304517319836 H 0.0 **** 0.06
34290 H 87.7117162328108 97.64105009601542 40.09718632579053 H 0.0 **** 0.06
34291 C 83.47483224019513 76.46617618434203 59.06626143929367 C 0.0 **** -0.24
34292 H 82.64620967507493 76.0583664878003 59.646220069044205 H 0.0 **** 0.06
34293 H 83.09614393069221 76.8674526564555 58.12586926060817 H 0.0 **** 0.06
34294 H 84.19589244267515 75.67599077801151 58.85986082116426 H 0.0 **** 0.06
34295 H 83.95837848660533 77.26128309311042 59.63339376260143 H 0.0 **** 0.06
34296 C 78.61833528105294 48.75778264508226 121.22111203160819 C 0.0 **** -0.24
34297 H 78.62035938015089 49.8463823851406 121.2823215337252 H 0.0 **** 0.06
34298 H 79.18081817529946 48.44380021063283 120.34097729407463 H 0.0 **** 0.06
34299 H 77.59102056069253 48.40118253410468 121.14269063644907 H 0.0 **** 0.06
34300 H 79.08111771693908 48.34259050785393 122.1160052849445 H 0.0 **** 0.06
34301 C 115.46484579736014 120.20020959571701 114.82104873123427 C 0.0 **** -0.24
34302 H 115.67090915573652 120.74427739424516 113.89897432417075 H 0.0 **** 0.06
34303 H 115.73979890041758 119.15252311535568 114.69293173772328 H 0.0 **** 0.06
34304 H 114.40341949423839 120.27190615727068 115.05474466214724 H 0.0 **** 0.06
34305 H 116.04707796843627 120.63181823532682 115.63444880948663 H 0.0 **** 0.06
34306 C 127.88131760681364 90.47963325454651 6.7526779901774034 C 0.0 **** -0.24
34307 H 128.67401971444065 91.22236242760863 6.8504167961457085 H 0.0 **** 0.06
34308 H 128.26809768224683 89.49789433827715 7.025910370565896 H 0.0 **** 0.06
34309 H 127.53073028115028 90.4579631834344 5.720631472124268 H 0.0 **** 0.06
34310 H 127.0549851579712 90.74203686655875 7.412183882460312 H 0.0 **** 0.06
34311 C 79.23839282360595 61.36797672142035 121.13517494221799 C 0.0 **** -0.24
34312 H 78.51821861126604 62.16011983832216 121.34365400043616 H 0.0 **** 0.06
34313 H 78.82669900700492 60.69126070620486 120.38584942143456 H 0.0 **** 0.06
34314 H 79.44557672733876 60.815111138141674 122.05056090738864 H 0.0 **** 0.06
34315 H 80.16234977423318 61.80801486691847 120.75932647749474 H 0.0 **** 0.06
34316 C 114.21245447466808 99.82995407258966 6.330616636160016 C 0.0 **** -0.24
34317 H 115.03043607625497 99.17531664297832 6.63334762583122 H 0.0 **** 0.06
34318 H 113.36689383337131 99.6899460256875 7.00449276535312 H 0.0 **** 0.06
34319 H 113.91108340750105 99.5860658089274 5.312145707376601 H 0.0 **** 0.06
34320 H 114.54384128329309 100.86675123260463 6.373911279314882 H 0.0 **** 0.06
34321 C 41.821263751700414 131.21071126661926 31.13007065317248 C 0.0 **** -0.24
34322 H 41.67463195993506 130.3640790708425 31.79962202109624 H 0.0 **** 0.06
34323 H 41.25179037366107 132.06544486965535 31.494956384820114 H 0.0 **** 0.06
34324 H 41.479263733121044 130.94589217173925 30.12953684622471 H 0.0 **** 0.06
34325 H 42.880766763811124 131.46741862842686 31.095144559861012 H 0.0 **** 0.06
34326 C 22.890128278854483 90.19290457035567 106.83878474970174 C 0.0 **** -0.24
34327 H 22.60621907386757 89.3439576370377 107.46169789513726 H 0.0 **** 0.06
34328 H 22.588216959188152 90.00413940835256 105.80861809960095 H 0.0 **** 0.06
34329 H 23.969989202805863 90.32894470665678 106.88202191785035 H 0.0 **** 0.06
34330 H 22.39402898078631 91.09169480209368 107.20347724169821 H 0.0 **** 0.06
34331 C 76.17169061859302 10.994404621395095 10.108788525791041 C 0.0 **** -0.24
34332 H 76.88786222225966 10.559421927505358 10.806032643240616 H 0.0 **** 0.06
34333 H 75.62749788819777 11.799540977486771 10.602129956249183 H 0.0 **** 0.06
34334 H 75.47112288613343 10.22680528034801 9.781623251780946 H 0.0 **** 0.06
34335 H 76.70388868428608 11.392399897322466 9.244548361472653 H 0.0 **** 0.06
34336 C 73.75782534776647 78.4794714579605 115.60825974847813 C 0.0 **** -0.24
34337 H 73.03043414459847 78.81632917446746 114.87035736304293 H 0.0 **** 0.06
34338 H 74.75671850072763 78.79019928226737 115.30167083666834 H 0.0 **** 0.06
34339 H 73.72206066633811 77.39190713993781 115.6826094164195 H 0.0 **** 0.06
34340 H 73.52077642216582 78.91738674289336 116.57825361783588 H 0.0 **** 0.06
34341 C 10.840275317971134 77.93397295582918 2.565167244022348 C 0.0 **** -0.24
34342 H 10.555509803367059 77.9523274652372 1.5138263322993737 H 0.0 **** 0.06
34343 H 11.92677704775582 77.90692718201359 2.647262142799349 H 0.0 **** 0.06
34344 H 10.41792418661538 77.04868598059227 3.040831587410395 H 0.0 **** 0.06
34345 H 10.460126693523591 78.8274881493412 3.0598455843100396 H 0.0 **** 0.06
34346 C 60.12352248663403 54.25201275920779 30.282882202794212 C 0.0 **** -0.24
34347 H 59.10824398863001 53.98982662180927 29.986618763110584 H 0.0 **** 0.06
34348 H 60.198030409843554 55.33266853442922 30.40924985660064 H 0.0 **** 0.06
34349 H 60.82220939684218 53.9274237508705 29.51272405513805 H 0.0 **** 0.06
34350 H 60.36526867647352 53.75878383361629 31.225048392127178 H 0.0 **** 0.06
34351 C 91.22929323798184 130.87565976371914 32.025200343577 C 0.0 **** -0.24
34352 H 91.8586710438584 131.76462195034452 31.98769227793506 H 0.0 **** 0.06
34353 H 90.38246896418245 131.0019152529004 31.35060619607963 H 0.0 **** 0.06
34354 H 90.86448344213423 130.73248628445612 33.04309636156841 H 0.0 **** 0.06
34355 H 91.81086760957712 130.0052041339029 31.721858455512468 H 0.0 **** 0.06
34356 C 63.10775291091048 62.9436259322101 116.80368068967852 C 0.0 **** -0.24
34357 H 63.049196760001564 63.783262287414345 116.11066549705995 H 0.0 **** 0.06
34358 H 62.63285995060227 62.06986204604851 116.35653368079201 H 0.0 **** 0.06
34359 H 62.595936643583116 63.20123334279299 117.73100943369565 H 0.0 **** 0.06
34360 H 64.1537915332218 62.720309919966155 117.01534140071004 H 0.0 **** 0.06
34361 C 39.18264686243427 30.682468811982673 47.55141557995201 C 0.0 **** -0.24
34362 H 38.2900860206058 31.253778994663172 47.806940318996894 H 0.0 **** 0.06
34363 H 39.53455828568646 30.145987554377662 48.43300239182878 H 0.0 **** 0.06
34364 H 39.96108638849839 31.360949774785155 47.20305868166761 H 0.0 **** 0.06
34365 H 38.94266879435469 29.96881736285986 46.76297140452441 H 0.0 **** 0.06
34366 C 39.787648225022735 107.07998405656417 10.181578860322588 C 0.0 **** -0.24
34367 H 39.470547211785515 107.85891701567982 10.875937928607541 H 0.0 **** 0.06
34368 H 39.05697964214403 106.27077285001133 10.18579021624177 H 0.0 **** 0.06
34369 H 40.7599374329871 106.69430627305144 10.488841653130606 H 0.0 **** 0.06
34370 H 39.863328028715955 107.49666572585477 9.17785132946274 H 0.0 **** 0.06
34371 C 27.463669902303366 102.94623086473155 74.39459618003899 C 0.0 **** -0.24
34372 H 27.139460760537162 102.40762895217074 73.50410391301628 H 0.0 **** 0.06
34373 H 27.994898160848663 102.26389050345949 75.05902321438587 H 0.0 **** 0.06
34374 H 26.593403620868486 103.35133642415929 74.91074551583813 H 0.0 **** 0.06
34375 H 28.125944329711416 103.7619976652723 74.1042908515906 H 0.0 **** 0.06
34376 C 12.988715136248501 135.34607186396818 100.72803588037213 C 0.0 **** -0.24
34377 H 13.999360118407395 135.31577831138662 101.13607891219247 H 0.0 **** 0.06
34378 H 12.592729474024608 134.33176516040925 100.66567889550309 H 0.0 **** 0.06
34379 H 13.010931848925821 135.79048703498853 99.73292099141302 H 0.0 **** 0.06
34380 H 12.351794604609964 135.94498600580846 101.37930400342105 H 0.0 **** 0.06
34381 C 13.388536914595619 18.988471331740755 19.787564481945935 C 0.0 **** -0.24
34382 H 14.195561872719423 18.257578241155954 19.73055484516425 H 0.0 **** 0.06
34383 H 12.626189177446221 18.634231059014326 20.481472848935482 H 0.0 **** 0.06
34384 H 12.94798405870148 19.119081721930513 18.798537068035955 H 0.0 **** 0.06
34385 H 13.784908469693207 19.94073195634968 20.137319065356053 H 0.0 **** 0.06
34386 C 39.36360485751106 5.04434876414653 91.75783430248316 C 0.0 **** -0.24
34387 H 39.861215192171386 5.9027640311750496 92.21078829375713 H 0.0 **** 0.06
34388 H 39.44422658745691 5.109728170748774 90.67250727351137 H 0.0 **** 0.06
34389 H 38.312916932536325 5.0409052664543665 92.04531998749508 H 0.0 **** 0.06
34390 H 39.83837448688229 4.12636966431743 92.10257939574336 H 0.0 **** 0.06
34391 C 108.49982701772662 125.59612713996832 5.451090999948008 C 0.0 **** -0.24
34392 H 107.6725874816547 125.73749127152836 4.755927012767586 H 0.0 **** 0.06
34393 H 109.36676510636958 125.21504136838874 4.911391040565718 H 0.0 **** 0.06
34394 H 108.20897331879485 124.88224829365299 6.221943901462879 H 0.0 **** 0.06
34395 H 108.75046075524467 126.55040566686347 5.915620157111363 H 0.0 **** 0.06
34396 C 122.15430933455013 123.81635778932696 80.54229768258698 C 0.0 **** -0.24
34397 H 122.63520312743248 124.5902496884438 81.13971253220382 H 0.0 **** 0.06
34398 H 122.13854756957903 124.12258346466248 79.49585537221022 H 0.0 **** 0.06
34399 H 121.13388346082883 123.66690261132344 80.89304428566528 H 0.0 **** 0.06
34400 H 122.7121090021223 122.88449433360344 80.63944773036711 H 0.0 **** 0.06
34401 C 85.2994445622873 120.73311244937578 14.873343593096493 C 0.0 **** -0.24
34402 H 86.08726874195736 120.19849381018993 14.342287048959093 H 0.0 **** 0.06
34403 H 84.58309249944169 121.13040979574436 14.154100510144133 H 0.0 **** 0.06
34404 H 85.73756345124946 121.55242791211744 15.442997923660116 H 0.0 **** 0.06
34405 H 84.79033916061972 120.049195325052 15.552956094023301 H 0.0 **** 0.06
34406 C 91.20842835583852 61.562496668485124 20.160452044005815 C 0.0 **** -0.24
34407 H 90.94961148398494 61.26235709508188 21.17600910304754 H 0.0 **** 0.06
34408 H 91.37666640050558 60.673718474555244 19.551271117548403 H 0.0 **** 0.06
34409 H 92.11430898914676 62.166969832633725 20.180587971449036 H 0.0 **** 0.06
34410 H 90.39082397199252 62.145625234142784 19.7353423384874 H 0.0 **** 0.06
34411 C 20.512574530747088 125.75764901949992 0.23410095311115597 C 0.0 **** -0.24
34412 H 20.942528503627727 125.24587823178871 1.0959868934161534 H 0.0 **** 0.06
34413 H 21.137104582905806 126.61008396203317 -0.030245170666066912 H 0.0 **** 0.06
34414 H 19.509251974073834 126.10418300646074 0.4815642823706483 H 0.0 **** 0.06
34415 H 20.460675433694632 125.06888308102651 -0.6086665074946218 H 0.0 **** 0.06
34416 C 4.154836327976966 70.1693884960671 2.736923095192658 C 0.0 **** -0.24
34417 H 4.778216206137756 69.83787605288668 1.9064087385821082 H 0.0 **** 0.06
34418 H 4.784236402317163 70.36881931952662 3.6053774975058417 H 0.0 **** 0.06
34419 H 3.4331648263178636 69.39079727624754 2.9822126694912825 H 0.0 **** 0.06
34420 H 3.626544564278163 71.07981285863977 2.4537635002276907 H 0.0 **** 0.06
34421 C 80.40488722113508 58.364862478601935 0.17649132149753655 C 0.0 **** -0.24
34422 H 79.3902250308696 58.42266636141862 -0.21846747172173764 H 0.0 **** 0.06
34423 H 80.65452107460851 57.32473014965504 0.3840309575156198 H 0.0 **** 0.06
34424 H 80.47013878360707 58.946167575849515 1.095399155888714 H 0.0 **** 0.06
34425 H 81.1027831603484 58.767469980418966 -0.5583069941431518 H 0.0 **** 0.06
34426 C 39.019922852762136 73.63637970648945 113.12148786623618 C 0.0 **** -0.24
34427 H 39.308368692919984 72.96430062174116 112.31294053434672 H 0.0 **** 0.06
34428 H 38.13050730735293 74.19509976338385 112.82869615362569 H 0.0 **** 0.06
34429 H 39.83455390173853 74.33155482834384 113.32478290145608 H 0.0 **** 0.06
34430 H 38.80518950947881 73.05491699553677 114.01760154676168 H 0.0 **** 0.06
34431 C 135.9916654713243 50.47975332673866 31.12866804632489 C 0.0 **** -0.24
34432 H 135.99920071758737 51.56687466887527 31.214688534454893 H 0.0 **** 0.06
34433 H 137.01175579644783 50.10262641704844 31.19795052288316 H 0.0 **** 0.06
34434 H 135.56258073006717 50.19479695848506 30.16839767614971 H 0.0 **** 0.06
34435 H 135.3921154750604 50.057067443462174 31.935200458447014 H 0.0 **** 0.06
34436 C 40.60662966971961 97.75815918112133 106.32386058071452 C 0.0 **** -0.24
34437 H 40.79913790212515 97.24731987841065 105.38086386278633 H 0.0 **** 0.06
34438 H 39.54584422582556 97.68919960523422 106.56541573625503 H 0.0 **** 0.06
34439 H 40.89177444493356 98.80568414770124 106.2336779843655 H 0.0 **** 0.06
34440 H 41.19053408682322 97.28956597424616 107.11629235515133 H 0.0 **** 0.06
34441 C 111.43731049130258 136.29273752153748 10.36520757959343 C 0.0 **** -0.24
34442 H 110.36476220080044 136.34245762132372 10.177707892218677 H 0.0 **** 0.06
34443 H 111.79057545420693 135.2774908834889 10.18540162819098 H 0.0 **** 0.06
34444 H 111.63769584249368 136.5694147669265 11.400456095937898 H 0.0 **** 0.06
34445 H 111.95499208309784 136.98161801568776 9.698497412047594 H 0.0 **** 0.06
34446 C 74.84320874634227 29.655307745096643 84.19815662517169 C 0.0 **** -0.24
34447 H 74.85070914926206 30.729545294800424 84.01501605473408 H 0.0 **** 0.06
34448 H 73.82054730879187 29.283434335073146 84.12868827057085 H 0.0 **** 0.06
34449 H 75.23718890279562 29.45429972567797 85.1938997793971 H 0.0 **** 0.06
34450 H 75.46257644577008 29.15530737901799 83.4540872000176 H 0.0 **** 0.06
34451 C 92.25588050617512 108.15741803715636 65.54156828092974 C 0.0 **** -0.24
34452 H 92.30264224014023 108.9583945213858 64.80308394091301 H 0.0 **** 0.06
34453 H 91.22028891128815 107.83912963982544 65.66694639018877 H 0.0 **** 0.06
34454 H 92.64258076463551 108.51855309913543 66.49380216722084 H 0.0 **** 0.06
34455 H 92.85730753872274 107.31402367057692 65.20091659117878 H 0.0 **** 0.06
34456 C 18.322315934091108 71.01062810096334 63.72779943455146 C 0.0 **** -0.24
34457 H 19.035599140488443 70.19604472309658 63.84717270943614 H 0.0 **** 0.06
34458 H 18.651888768448828 71.87117042960872 64.31118247637221 H 0.0 **** 0.06
34459 H 17.341328996642005 70.68852886290318 64.07727872814274 H 0.0 **** 0.06
34460 H 18.25951995602111 71.28773731281643 62.67511417879513 H 0.0 **** 0.06
34461 C 61.02200011521978 86.87608057967485 126.66500259174147 C 0.0 **** -0.24
34462 H 61.394598637097374 87.03681571908643 127.6763836243029 H 0.0 **** 0.06
34463 H 60.09587993654 86.3017340553477 126.70545747738088 H 0.0 **** 0.06
34464 H 61.765064207117035 86.32629137064865 126.08635270112079 H 0.0 **** 0.06
34465 H 60.8315799964918 87.83901977558759 126.19080816146747 H 0.0 **** 0.06
34466 C 86.3949380160822 99.52133394647704 52.740607421982176 C 0.0 **** -0.24
34467 H 87.40366767453607 99.81235062699248 53.03508809829063 H 0.0 **** 0.06
34468 H 85.88085756886085 100.380212864651 52.30719948717852 H 0.0 **** 0.06
34469 H 85.84655889852698 99.17326373763132 53.616397106228646 H 0.0 **** 0.06
34470 H 86.44866792240504 98.7195085566333 52.00374499623105 H 0.0 **** 0.06
34471 C 99.11101895270605 10.590593582324573 1.437738802999835 C 0.0 **** -0.24
34472 H 99.91296079686224 11.314676383128699 1.5871962019551695 H 0.0 **** 0.06
34473 H 99.06752467666999 9.916647357355117 2.294246753774388 H 0.0 **** 0.06
34474 H 99.30410345021143 10.0159891029964 0.5328542545682815 H 0.0 **** 0.06
34475 H 98.16125586236102 11.116551543883503 1.339599277320925 H 0.0 **** 0.06
34476 C 67.8399337407684 26.282689657963374 127.84823880862214 C 0.0 **** -0.24
34477 H 68.73560786071408 25.667616846145506 127.94079914437896 H 0.0 **** 0.06
34478 H 68.08298867279422 27.316072069970517 128.09863893717466 H 0.0 **** 0.06
34479 H 67.07442070515552 25.913158203494163 128.53072497685986 H 0.0 **** 0.06
34480 H 67.4694986986342 26.232991805309666 126.82489477542418 H 0.0 **** 0.06
34481 C 88.16035722892967 106.52898102391072 121.52707790317551 C 0.0 **** -0.24
34482 H 88.83233371347868 107.31382130461725 121.17806435463795 H 0.0 **** 0.06
34483 H 87.49082391778228 106.2386837732331 120.71763568982611 H 0.0 **** 0.06
34484 H 87.5749400114114 106.90002562301032 122.36922142885622 H 0.0 **** 0.06
34485 H 88.74449070908946 105.66539881936455 121.84418654278885 H 0.0 **** 0.06
34486 C 27.272284586192896 3.8925663136182713 66.47846021973423 C 0.0 **** -0.24
34487 H 28.302938633274195 3.803271597157668 66.8201950581534 H 0.0 **** 0.06
34488 H 26.595626905970462 3.642624108090441 67.29595111503563 H 0.0 **** 0.06
34489 H 27.104816311826077 3.2096886810177985 65.64587355574297 H 0.0 **** 0.06
34490 H 27.084758398104476 4.916024395797262 66.15137519279293 H 0.0 **** 0.06
34491 C 4.120193203324504 9.440557035788636 24.728609894399966 C 0.0 **** -0.24
34492 H 3.667067287158602 9.843221707412848 25.634954843195146 H 0.0 **** 0.06
34493 H 4.510223996672607 10.258841447883015 24.123465569270962 H 0.0 **** 0.06
34494 H 3.3684653877610913 8.894183899928159 24.159254350989954 H 0.0 **** 0.06
34495 H 4.933765079563784 8.766353954793502 24.997308787040097 H 0.0 **** 0.06
34496 C 8.62733835867369 20.50634011230153 26.97598447899668 C 0.0 **** -0.24
34497 H 8.868844285899446 20.66352120731881 25.924781334821745 H 0.0 **** 0.06
34498 H 8.472870150223962 19.442914632734812 27.157750450979165 H 0.0 **** 0.06
34499 H 7.719353893215825 21.05473463427404 27.225709716630575 H 0.0 **** 0.06
34500 H 9.450828409776339 20.86557226344047 27.594908188921806 H 0.0 **** 0.06
34501 C 133.7003868801392 41.44732283262921 46.86798157685598 C 0.0 **** -0.24
34502 H 132.73815905074426 41.45082328500524 47.38069538002654 H 0.0 **** 0.06
34503 H 134.03217040324319 40.41768092417041 46.7254599656485 H 0.0 **** 0.06
34504 H 134.43357126831515 41.98508312750664 47.46925405085676 H 0.0 **** 0.06
34505 H 133.59689901577397 41.933882205754145 45.897973683912 H 0.0 **** 0.06
34506 C 54.184278344366646 26.215930438865854 60.86737206145504 C 0.0 **** -0.24
34507 H 54.853374095185245 26.467425366735313 61.69050829404321 H 0.0 **** 0.06
34508 H 53.20585432025115 26.662360520771557 61.0455480553276 H 0.0 **** 0.06
34509 H 54.08397117498913 25.13320905806293 60.79941698467796 H 0.0 **** 0.06
34510 H 54.59634468464458 26.602076841233185 59.935141219607345 H 0.0 **** 0.06
34511 C 79.26964127858544 68.14756174755013 127.3142408910941 C 0.0 **** -0.24
34512 H 78.76429410971352 69.01963930253658 126.90054052881321 H 0.0 **** 0.06
34513 H 80.28177605862264 68.42072474755633 127.61322122359202 H 0.0 **** 0.06
34514 H 79.31321540589646 67.36188089473512 126.56014345483126 H 0.0 **** 0.06
34515 H 78.718644652332 67.78678297571247 128.18339134267714 H 0.0 **** 0.06
34516 C 83.30081594911707 50.09624612882752 31.956584129492853 C 0.0 **** -0.24
34517 H 84.30578309925943 50.1255337271586 32.376403468601055 H 0.0 **** 0.06
34518 H 83.33713967923654 49.65631633218203 30.95898124575144 H 0.0 **** 0.06
34519 H 82.90428118804016 51.10928262198371 31.893091756945225 H 0.0 **** 0.06
34520 H 82.65640068621155 49.492749397420596 32.597042401696164 H 0.0 **** 0.06
34521 C 21.63982805832734 77.93009745363082 55.15710680965816 C 0.0 **** -0.24
34522 H 22.451094304414653 78.06913760899852 54.44255242149586 H 0.0 **** 0.06
34523 H 21.681139807259 76.91830843531713 55.56232706375485 H 0.0 **** 0.06
34524 H 20.684145638946575 78.08115403738657 54.655152545047144 H 0.0 **** 0.06
34525 H 21.742454416426824 78.6504789068259 55.968626034141266 H 0.0 **** 0.06
34526 C 4.350328781138646 26.026221676995476 96.53086654930428 C 0.0 **** -0.24
34527 H 5.047103936791899 25.21035672460053 96.72603282613152 H 0.0 **** 0.06
34528 H 4.276839199414692 26.189834511788064 95.45491940205225 H 0.0 **** 0.06
34529 H 4.710912773477791 26.93462041950778 97.01288827651568 H 0.0 **** 0.06
34530 H 3.368537372584502 25.768206283943044 96.92783978211791 H 0.0 **** 0.06
34531 C 120.23647033005028 66.34031859477405 130.51201803527624 C 0.0 **** -0.24
34532 H 120.95333448831906 65.91394333396583 131.21344440935238 H 0.0 **** 0.06
34533 H 120.09995241687989 65.65827857839707 129.67248938093056 H 0.0 **** 0.06
34534 H 120.61092164510035 67.29691806553858 130.1465474312833 H 0.0 **** 0.06
34535 H 119.28188234962022 66.49318571370522 131.0165133679327 H 0.0 **** 0.06
34536 C 60.42421396130001 96.23245525774979 7.331077935007613 C 0.0 **** -0.24
34537 H 59.83781057342057 96.08401545648587 8.238123567055624 H 0.0 **** 0.06
34538 H 61.077214632622486 97.09531823648274 7.457954314979958 H 0.0 **** 0.06
34539 H 59.752420667224584 96.40591766419618 6.4900139320779715 H 0.0 **** 0.06
34540 H 61.026097277741826 95.3444865761794 7.138360146422826 H 0.0 **** 0.06
34541 C 102.83446590128591 73.06230468067284 55.64088848448087 C 0.0 **** -0.24
34542 H 102.07235927423329 73.588147747704 55.06598709551402 H 0.0 **** 0.06
34543 H 102.35611666267016 72.47686200625257 56.42728852900743 H 0.0 **** 0.06
34544 H 103.51441459808967 73.78629591585413 56.08989018007722 H 0.0 **** 0.06
34545 H 103.39437768191584 72.39834007001708 54.981957626317964 H 0.0 **** 0.06
34546 C 67.80008255438516 20.337403220401 18.05188918475207 C 0.0 **** -0.24
34547 H 67.61288609849484 21.404088792601783 17.93015004035061 H 0.0 **** 0.06
34548 H 67.82988597717849 19.860155255701187 17.071618677853195 H 0.0 **** 0.06
34549 H 67.00230197079783 19.89435931451527 18.64814358273027 H 0.0 **** 0.06
34550 H 68.75519543382721 20.191148826267806 18.555919026977676 H 0.0 **** 0.06
34551 C 115.48019405585987 31.283327733786024 51.68828485887485 C 0.0 **** -0.24
34552 H 116.16376823000903 31.306763598254378 50.83940666671572 H 0.0 **** 0.06
34553 H 116.04589755159006 31.397564853445914 52.61307700142817 H 0.0 **** 0.06
34554 H 114.94991637978995 30.33168119492919 51.70063237205045 H 0.0 **** 0.06
34555 H 114.76281071058821 32.09907465048508 51.59822282541052 H 0.0 **** 0.06
34556 C 24.148508175500076 135.69725946254954 94.579191152943 C 0.0 **** -0.24
34557 H 23.43485535323684 135.4747956927549 95.37225518913743 H 0.0 **** 0.06
34558 H 25.028277336010014 135.0649962001169 94.69527479703515 H 0.0 **** 0.06
34559 H 24.443930327315343 136.74520943680523 94.64004931039375 H 0.0 **** 0.06
34560 H 23.68751634479659 135.50514026689513 93.6107610984628 H 0.0 **** 0.06
34561 C 4.506281204332339 6.078296221389962 62.82973225981681 C 0.0 **** -0.24
34562 H 5.391939418422396 5.603400500845623 63.25273069792661 H 0.0 **** 0.06
34563 H 4.792661914751648 6.670476236162642 61.96037445207884 H 0.0 **** 0.06
34564 H 4.049301406541986 6.725655849937084 63.577942805085016 H 0.0 **** 0.06
34565 H 3.793150821082122 5.311000941269413 62.52838184626904 H 0.0 **** 0.06
34566 C 55.91676011260407 99.11296132165509 52.64512339184404 C 0.0 **** -0.24
34567 H 56.90711247616976 99.45049558541353 52.34001051834129 H 0.0 **** 0.06
34568 H 55.86047355603587 98.02801452551103 52.556385929431556 H 0.0 **** 0.06
34569 H 55.16299201004962 99.56951643994631 52.00321128008203 H 0.0 **** 0.06
34570 H 55.73602062177302 99.40260137716746 53.68031754772774 H 0.0 **** 0.06
34571 C 114.6267267759415 24.643550807284498 135.85821817370027 C 0.0 **** -0.24
34572 H 114.44990238114497 24.457092227988937 134.79897155915248 H 0.0 **** 0.06
34573 H 114.15743936438494 25.585307454583273 136.14447653564218 H 0.0 **** 0.06
34574 H 115.69905692248156 24.702047308393333 136.0426747881175 H 0.0 **** 0.06
34575 H 114.19989272493672 23.831017854218004 136.44657858737023 H 0.0 **** 0.06
34576 C 69.20347925481207 62.36281360797835 68.56550827262053 C 0.0 **** -0.24
34577 H 69.32530654003304 63.44286658905378 68.65296554406498 H 0.0 **** 0.06
34578 H 69.59055149712475 61.87988322329005 69.46288466813182 H 0.0 **** 0.06
34579 H 69.75186415837658 62.00493026510205 67.6946187658456 H 0.0 **** 0.06
34580 H 68.14546903247708 62.12475908396016 68.4513000370663 H 0.0 **** 0.06
34581 C 112.08915912883569 107.47649378626221 124.01088805041707 C 0.0 **** -0.24
34582 H 111.92321069646269 108.49434676603664 124.36294694279826 H 0.0 **** 0.06
34583 H 112.90983883468215 107.0281967956913 124.57021948618001 H 0.0 **** 0.06
34584 H 112.33944757690048 107.49583140536744 122.9501501870231 H 0.0 **** 0.06
34585 H 111.18327270481959 106.88924367934477 124.15949537260468 H 0.0 **** 0.06
34586 C 25.35063992694659 95.49140445127684 121.59863068642338 C 0.0 **** -0.24
34587 H 25.457290171288605 95.88535997172781 120.58754816239802 H 0.0 **** 0.06
34588 H 26.08041372382064 94.69605385475427 121.75616094485471 H 0.0 **** 0.06
34589 H 24.34512651043253 95.09362844324187 121.72865372212391 H 0.0 **** 0.06
34590 H 25.52201422614373 96.2911155303625 122.31924646869422 H 0.0 **** 0.06
34591 C 94.76553367030161 56.27673129494002 44.37396171458754 C 0.0 **** -0.24
34592 H 93.77336037744341 56.02761919436347 43.99798117343552 H 0.0 **** 0.06
34593 H 95.35486271624141 55.36521414990989 44.47682017016721 H 0.0 **** 0.06
34594 H 94.67456180510857 56.76343526532412 45.34514060544603 H 0.0 **** 0.06
34595 H 95.25896483454419 56.95220210895971 43.67433540087587 H 0.0 **** 0.06
34596 C 114.67356156025036 11.96842854183717 29.48679386261881 C 0.0 **** -0.24
34597 H 114.7308267951457 12.838748015651163 30.140971816372428 H 0.0 **** 0.06
34598 H 113.90732105838529 11.285954728675648 29.85645602779067 H 0.0 **** 0.06
34599 H 115.6380290830146 11.460268643279448 29.475261388908507 H 0.0 **** 0.06
34600 H 114.41941219527155 12.289053344192695 28.47624701997961 H 0.0 **** 0.06
34601 C 4.50680217102925 22.010038257004624 106.00095138439265 C 0.0 **** -0.24
34602 H 3.492938445740265 22.24715925138858 105.6780225105647 H 0.0 **** 0.06
34603 H 5.012905956562918 22.924968024384953 106.30799456305415 H 0.0 **** 0.06
34604 H 5.05154364974959 21.550963762908452 105.17591356969707 H 0.0 **** 0.06
34605 H 4.4673727221621675 21.31611410057289 106.84042242700095 H 0.0 **** 0.06
34606 C 73.99524021853692 85.64425193905268 28.383273896602738 C 0.0 **** -0.24
34607 H 73.03548392047496 86.1415602744857 28.528240764365187 H 0.0 **** 0.06
34608 H 74.80145353471518 86.36680739651635 28.51658121804239 H 0.0 **** 0.06
34609 H 74.04110740738273 85.22885579835366 27.37682951895951 H 0.0 **** 0.06
34610 H 74.1021178450326 84.84225295582655 29.112950411966544 H 0.0 **** 0.06
34611 C 50.9722876977072 37.955369332604135 27.060240098870963 C 0.0 **** -0.24
34612 H 51.06191081209056 37.31610357915437 26.181489797352945 H 0.0 **** 0.06
34613 H 51.86032667803872 37.841589533386525 27.683236938230998 H 0.0 **** 0.06
34614 H 50.08885773522542 37.66842337332412 27.62988695593379 H 0.0 **** 0.06
34615 H 50.879625754332835 38.99404563544118 26.74500319735153 H 0.0 **** 0.06
34616 C 62.669013707870704 57.94382220320985 30.763660032396665 C 0.0 **** -0.24
34617 H 62.25226326108685 58.76264614024875 31.34989844329752 H 0.0 **** 0.06
34618 H 63.74898994720846 57.908829484556534 30.90430091985226 H 0.0 **** 0.06
34619 H 62.44321732697165 58.10119073947425 29.708938645540975 H 0.0 **** 0.06
34620 H 62.22862849426457 57.00229460316332 31.09189730356234 H 0.0 **** 0.06
34621 C 46.39049521898629 85.29744849016575 55.22270020457273 C 0.0 **** -0.24
34622 H 47.385692443006036 84.90562639763198 55.4306976886042 H 0.0 **** 0.06
34623 H 45.81288106766989 84.5529326233134 54.674111000661185 H 0.0 **** 0.06
34624 H 46.47524108873763 86.20511386542479 54.624539858284265 H 0.0 **** 0.06
34625 H 45.887464928095284 85.52756457919322 56.16210384039462 H 0.0 **** 0.06
34626 C 23.83176264642475 2.593970948246451 94.56942607920747 C 0.0 **** -0.24
34627 H 24.505339747960022 2.474160294425033 93.72021443938442 H 0.0 **** 0.06
34628 H 22.83274875160467 2.8384258443659363 94.20822653532244 H 0.0 **** 0.06
34629 H 24.194025551956145 3.3978543180822456 95.21040126323669 H 0.0 **** 0.06
34630 H 23.796229640870365 1.663929654020702 95.13784380910896 H 0.0 **** 0.06
34631 C 123.63199389333965 77.15041603315383 38.826457140714005 C 0.0 **** -0.24
34632 H 122.8809116624542 76.37883263052656 38.99364136627096 H 0.0 **** 0.06
34633 H 123.17110851181488 78.13295472388702 38.92272447722198 H 0.0 **** 0.06
34634 H 124.04845820745444 77.04008395506253 37.825239698234 H 0.0 **** 0.06
34635 H 124.42756290383852 77.04755787074383 39.564192997321875 H 0.0 **** 0.06
34636 C 30.342584156792014 26.199593205833708 4.225418861256173 C 0.0 **** -0.24
34637 H 30.57158528320305 25.18897162108175 3.886503555796139 H 0.0 **** 0.06
34638 H 29.261573558480393 26.321499749609472 4.300804471987931 H 0.0 **** 0.06
34639 H 30.741431916246427 26.920607815742358 3.5123498416026564 H 0.0 **** 0.06
34640 H 30.79583586791236 26.36636931679749 5.202388491977388 H 0.0 **** 0.06
34641 C 6.025923577006154 113.32756060644513 43.53385626371986 C 0.0 **** -0.24
34642 H 6.102144348435161 114.390129927322 43.76573968006447 H 0.0 **** 0.06
34643 H 6.634830865043341 112.75864997242721 44.23652095603609 H 0.0 **** 0.06
34644 H 6.382261733151267 113.15158121919944 42.5182881999218 H 0.0 **** 0.06
34645 H 4.985772108615748 113.01139362601828 43.61388396780259 H 0.0 **** 0.06
34646 C 43.049486480851236 82.42588779641402 86.82537904895523 C 0.0 **** -0.24
34647 H 43.51691620424251 81.50584409375273 87.17681342134317 H 0.0 **** 0.06
34648 H 42.0212975204832 82.47044329462686 87.18511555361626 H 0.0 **** 0.06
34649 H 43.05351436607918 82.44202780649215 85.73524494512867 H 0.0 **** 0.06
34650 H 43.60493858484547 83.28341842518077 87.20409689400579 H 0.0 **** 0.06
34651 C 25.83581796626723 13.75042477847083 57.44382790743255 C 0.0 **** -0.24
34652 H 25.18258744905026 13.308967498383538 56.69180770958522 H 0.0 **** 0.06
34653 H 26.874949652715003 13.640930590920078 57.132693779654105 H 0.0 **** 0.06
34654 H 25.686924476450827 13.242588354193856 58.39732515897542 H 0.0 **** 0.06
34655 H 25.598415320125554 14.808254781944356 57.55444755292078 H 0.0 **** 0.06
34656 C 70.16087929538394 12.564918494623953 77.34659964097585 C 0.0 **** -0.24
34657 H 69.72960905212683 13.410700052427842 76.8111842962877 H 0.0 **** 0.06
34658 H 70.26183232936829 11.71830987252929 76.66684201524004 H 0.0 **** 0.06
34659 H 69.50792448649408 12.289089211531802 78.17515822360764 H 0.0 **** 0.06
34660 H 71.14204760445688 12.84090515114326 77.73285884720127 H 0.0 **** 0.06
34661 C 104.62498563687598 122.425329731365 35.132312641615556 C 0.0 **** -0.24
34662 H 105.3347538315378 121.5981178643696 35.11404485988925 H 0.0 **** 0.06
34663 H 104.7458999810919 122.98675684160901 36.05882458957103 H 0.0 **** 0.06
34664 H 103.60945082059638 122.03339823783847 35.07343296437347 H 0.0 **** 0.06
34665 H 104.8121362214498 123.08245639288968 34.28233950878757 H 0.0 **** 0.06
34666 C 62.01844479093057 89.34928438990175 20.44113799959281 C 0.0 **** -0.24
34667 H 61.42651969307764 89.61565249899053 19.565884471692144 H 0.0 **** 0.06
34668 H 63.07327792582687 89.30921859375286 20.16730975962443 H 0.0 **** 0.06
34669 H 61.70173946012271 88.37379949431232 20.81131775458796 H 0.0 **** 0.06
34670 H 61.873807058666614 90.09772478844917 21.220052592885942 H 0.0 **** 0.06
34671 C 83.22814909955707 86.82082243998389 25.915655787112627 C 0.0 **** -0.24
34672 H 83.89564232879599 86.88739741849247 26.775209541041846 H 0.0 **** 0.06
34673 H 83.11674763182589 87.8078037802091 25.465730627418225 H 0.0 **** 0.06
34674 H 82.25346671367208 86.45740355579682 26.24058039740838 H 0.0 **** 0.06
34675 H 83.64760213353514 86.13221232722037 25.18281249951889 H 0.0 **** 0.06
34676 C 68.38071212710256 9.406661493643284 94.5105849250782 C 0.0 **** -0.24
34677 H 67.41829259968301 9.348682445107826 94.00263205021494 H 0.0 **** 0.06
34678 H 69.02214418335586 10.121491487652293 93.99413637330423 H 0.0 **** 0.06
34679 H 68.85346565391194 8.424717314939016 94.50636861207718 H 0.0 **** 0.06
34680 H 68.22859027132677 9.732490415761006 95.53977904521102 H 0.0 **** 0.06
34681 C 135.62536044747844 33.05153074583268 116.45546259802839 C 0.0 **** -0.24
34682 H 134.61388494837558 33.04967323120246 116.04719429966872 H 0.0 **** 0.06
34683 H 136.2393691013096 33.76034629984423 115.89947521875226 H 0.0 **** 0.06
34684 H 136.05350880718248 32.0527519446446 116.3684340621175 H 0.0 **** 0.06
34685 H 135.59203339115913 33.3426237779031 117.50517455809083 H 0.0 **** 0.06
34686 C 0.9768985486149973 91.90903189190833 45.98254714819137 C 0.0 **** -0.24
34687 H 1.0147804887741252 92.99649060083216 45.91009971875246 H 0.0 **** 0.06
34688 H 1.9699457333547343 91.49784781340249 45.801260073982576 H 0.0 **** 0.06
34689 H 0.28158102293024 91.52016498098766 45.23787797498255 H 0.0 **** 0.06
34690 H 0.6399178615795655 91.62347195280617 46.97902424173333 H 0.0 **** 0.06
34691 C 60.43327705580563 73.77688842104399 99.54915447230246 C 0.0 **** -0.24
34692 H 60.02801491711347 72.802357765773 99.82167725665894 H 0.0 **** 0.06
34693 H 60.41283931619108 74.43477452370254 100.41775404505631 H 0.0 **** 0.06
34694 H 59.829823909608166 74.21042353484482 98.75176143248225 H 0.0 **** 0.06
34695 H 61.46028732843354 73.6605415319175 99.20437001844999 H 0.0 **** 0.06
34696 C 97.33249054236768 0.788887272786809 47.799133003688326 C 0.0 **** -0.24
34697 H 96.58081366875308 1.5713713266659397 47.687433753408186 H 0.0 **** 0.06
34698 H 96.95498512239124 -0.1409995502375807 47.37301418531791 H 0.0 **** 0.06
34699 H 97.54854381766563 0.6422700020495427 48.85725464407301 H 0.0 **** 0.06
34700 H 98.24283960666304 1.0840345360504386 47.278869933038266 H 0.0 **** 0.06
34701 C 71.135925753003 32.56447795440292 93.7766302991148 C 0.0 **** -0.24
34702 H 71.5868327185973 33.082779233304024 92.93023100459641 H 0.0 **** 0.06
34703 H 71.90269528643171 32.35678412901634 94.52456340398419 H 0.0 **** 0.06
34704 H 70.69531960708747 31.627909758116942 93.4364829069944 H 0.0 **** 0.06
34705 H 70.36128500860502 33.193169937628795 94.21604261485027 H 0.0 **** 0.06
34706 C 124.58367073205369 44.43086776563291 121.23580500388324 C 0.0 **** -0.24
34707 H 124.4767388733286 43.515569840544174 121.81859774792584 H 0.0 **** 0.06
34708 H 123.94498838975665 44.37631772410276 120.35344607305046 H 0.0 **** 0.06
34709 H 125.62188507941471 44.5450981396304 120.92697597431003 H 0.0 **** 0.06
34710 H 124.2894935437755 45.285788491431276 121.8443659139154 H 0.0 **** 0.06
34711 C 112.43402702213007 87.92219638584544 40.27414908183073 C 0.0 **** -0.24
34712 H 112.12949836989986 87.60815734640903 39.27598485465293 H 0.0 **** 0.06
34713 H 111.97758180998068 87.26698383580606 41.016445094052216 H 0.0 **** 0.06
34714 H 112.11048193329162 88.94820897280152 40.44622103562705 H 0.0 **** 0.06
34715 H 113.51947429653944 87.86466232114321 40.357210033852226 H 0.0 **** 0.06
34716 C 53.14223865575201 84.90846234249528 122.55622140629168 C 0.0 **** -0.24
34717 H 54.04645190826591 84.84252058703419 121.9519349718804 H 0.0 **** 0.06
34718 H 53.307505567745096 84.41293956083925 123.51299206328967 H 0.0 **** 0.06
34719 H 52.31918415571232 84.4225475930267 122.03188828269768 H 0.0 **** 0.06
34720 H 52.895101377283794 85.95657578464233 122.72667217992111 H 0.0 **** 0.06
34721 C 61.73080606532653 36.29725639211892 44.58643741642989 C 0.0 **** -0.24
34722 H 60.7426749410032 36.008373141611095 44.944525966536176 H 0.0 **** 0.06
34723 H 62.493795268589565 35.79607725391087 45.18315516323334 H 0.0 **** 0.06
34724 H 61.84828429690299 37.37749941264749 44.67876290988909 H 0.0 **** 0.06
34725 H 61.83862142574043 36.007851615215834 43.54139734229901 H 0.0 **** 0.06
34726 C 126.36367556869664 88.14490642723655 26.608086193205338 C 0.0 **** -0.24
34727 H 126.22168112371878 87.36825997085668 25.857208122170505 H 0.0 **** 0.06
34728 H 127.26113783607946 87.92982754970478 27.187775420273283 H 0.0 **** 0.06
34729 H 125.49893566717458 88.1711874111727 27.27123721717669 H 0.0 **** 0.06
34730 H 126.47268457187829 89.11123508028041 26.11408709620025 H 0.0 **** 0.06
34731 C 74.95001397811994 117.56771901304242 28.364056461834977 C 0.0 **** -0.24
34732 H 75.33102404303065 117.2396673161281 29.330993616096265 H 0.0 **** 0.06
34733 H 74.54165911064618 118.57468605720751 28.456796923583497 H 0.0 **** 0.06
34734 H 74.16587997932582 116.88648005436667 28.032236541984787 H 0.0 **** 0.06
34735 H 75.76111884367121 117.56976491973353 27.635313837180846 H 0.0 **** 0.06
34736 C 91.64236284705453 129.70941017152353 56.155577035616204 C 0.0 **** -0.24
34737 H 92.09976919963438 130.33772894535826 55.39123809619173 H 0.0 **** 0.06
34738 H 91.40517554176927 130.31544583387483 57.0292142364525 H 0.0 **** 0.06
34739 H 92.33731166407978 128.91857337149224 56.43853882652371 H 0.0 **** 0.06
34740 H 90.72824390630157 129.26550771130707 55.760718514408524 H 0.0 **** 0.06
34741 C 118.33749125128091 85.83403331905089 71.80569558576758 C 0.0 **** -0.24
34742 H 119.42558829735322 85.81804891754689 71.7531853342793 H 0.0 **** 0.06
34743 H 117.95917054509039 86.69187357089447 71.24937856635097 H 0.0 **** 0.06
34744 H 118.02560254695848 85.91047780449742 72.84768684000522 H 0.0 **** 0.06
34745 H 117.9395061365652 84.91656223007993 71.37404916184823 H 0.0 **** 0.06
34746 C 24.015824551335072 80.794332221647 71.37893282414905 C 0.0 **** -0.24
34747 H 23.714896842228768 80.29658155806055 70.45683148754804 H 0.0 **** 0.06
34748 H 24.293384606700982 80.04554334784001 72.12186200821547 H 0.0 **** 0.06
34749 H 23.185896058529977 81.39193539387826 71.7565599236121 H 0.0 **** 0.06
34750 H 24.869325771227665 81.44239496690905 71.17938479630622 H 0.0 **** 0.06
34751 C 122.31355159481194 135.7319795936739 134.34223074649233 C 0.0 **** -0.24
34752 H 122.94220319402604 136.61908580766863 134.419856757742 H 0.0 **** 0.06
34753 H 122.24775081727051 135.42404972280306 133.29901001990677 H 0.0 **** 0.06
34754 H 121.31658580806857 135.95952977149753 134.7184915083674 H 0.0 **** 0.06
34755 H 122.74940601390051 134.9255219160705 134.9329439224544 H 0.0 **** 0.06
34756 C 133.34465240726269 27.625375137853403 82.36091073839873 C 0.0 **** -0.24
34757 H 132.35181450711772 27.78890653528834 82.78003894025153 H 0.0 **** 0.06
34758 H 133.45817992625737 26.57487061110257 82.09532506159633 H 0.0 **** 0.06
34759 H 134.0993211325702 27.898270322714296 83.09896048151751 H 0.0 **** 0.06
34760 H 133.4676998960986 28.24172880997061 81.47044989070002 H 0.0 **** 0.06
34761 C 54.39637564175328 101.22708246168139 79.79380936854835 C 0.0 **** -0.24
34762 H 54.80515459346911 102.05254140664388 79.20980386555641 H 0.0 **** 0.06
34763 H 53.50052293176849 101.56273995089612 80.31742095487294 H 0.0 **** 0.06
34764 H 55.13819495492524 100.89318872254437 80.5186756308018 H 0.0 **** 0.06
34765 H 54.14164926565921 100.40292097938153 79.12806065368082 H 0.0 **** 0.06
34766 C 18.775850900096245 52.046574866796604 76.69502066724249 C 0.0 **** -0.24
34767 H 19.524923102930742 51.60209920621294 77.35032615592985 H 0.0 **** 0.06
34768 H 18.49098492580587 51.32530722200414 75.92800274255643 H 0.0 **** 0.06
34769 H 19.18986949168341 52.93677601235399 76.22069311897519 H 0.0 **** 0.06
34770 H 17.89875846713972 52.321289095701374 77.27963502355061 H 0.0 **** 0.06
34771 C 126.12299934336858 14.107392077334083 44.5031913779539 C 0.0 **** -0.24
34772 H 125.45900778177071 14.048120056060412 45.36547618451152 H 0.0 **** 0.06
34773 H 125.72058810875751 13.499587091012387 43.692285466600595 H 0.0 **** 0.06
34774 H 127.11043164989263 13.73773522845957 44.78039227046219 H 0.0 **** 0.06
34775 H 126.20168232865461 15.144637795309407 44.176769267407394 H 0.0 **** 0.06
34776 C 48.408007612175524 79.71396941467216 18.649520634994275 C 0.0 **** -0.24
34777 H 48.879753153598 78.742598942379 18.497992894406394 H 0.0 **** 0.06
34778 H 47.81454002905855 79.69125652432388 19.564002157861808 H 0.0 **** 0.06
34779 H 47.761941893617845 79.94052194863468 17.8020012852692 H 0.0 **** 0.06
34780 H 49.17786837404637 80.48135384782654 18.734911710993345 H 0.0 **** 0.06
34781 C 79.00192979037075 111.4554837034784 108.89281550867389 C 0.0 **** -0.24
34782 H 78.31655909097208 110.86878012700811 108.2802707928694 H 0.0 **** 0.06
34783 H 78.55126412110263 111.63726435698754 109.86932223413075 H 0.0 **** 0.06
34784 H 79.20233092948376 112.40814986042321 108.40205725790307 H 0.0 **** 0.06
34785 H 79.93570250071417 110.9083354324327 109.01852672766029 H 0.0 **** 0.06
34786 C 70.9975980460402 121.7757044332884 116.21776760417885 C 0.0 **** -0.24
34787 H 71.4117078819328 121.92354618424571 115.22020259885775 H 0.0 **** 0.06
34788 H 71.76035527494287 121.99819020903008 116.96380147753632 H 0.0 **** 0.06
34789 H 70.67384404414176 120.74060391476198 116.3262633224279 H 0.0 **** 0.06
34790 H 70.14512535407479 122.44027465363621 116.35844736790318 H 0.0 **** 0.06
34791 C 103.89177618874972 39.145681722131144 137.0254277105634 C 0.0 **** -0.24
34792 H 102.8699994764864 38.98776002344064 137.36957465133105 H 0.0 **** 0.06
34793 H 104.04941774763128 40.20745399183562 136.83251604841348 H 0.0 **** 0.06
34794 H 104.05650773488537 38.58193675590829 136.10675898384943 H 0.0 **** 0.06
34795 H 104.5895226684547 38.80701494356458 137.79081564539206 H 0.0 **** 0.06
34796 C 107.85275453739126 39.63064671186817 22.253718682935045 C 0.0 **** -0.24
34797 H 106.95583309227402 39.62579052023176 21.634829053546753 H 0.0 **** 0.06
34798 H 108.18597036086638 38.605271422517035 22.41745275196989 H 0.0 **** 0.06
34799 H 107.62903965363978 40.09833015969713 23.212895901939618 H 0.0 **** 0.06
34800 H 108.63901810199775 40.19238456378139 21.74976904551133 H 0.0 **** 0.06
34801 C 71.6949596264005 119.29616740726543 109.06828415325187 C 0.0 **** -0.24
34802 H 70.94331086455088 119.98548410950845 109.45441332449315 H 0.0 **** 0.06
34803 H 71.78796872578442 118.44600000347998 109.7445953158373 H 0.0 **** 0.06
34804 H 72.65366734000077 119.80845909391203 108.99430604768703 H 0.0 **** 0.06
34805 H 71.39319552001837 118.94394897229465 108.08217126222013 H 0.0 **** 0.06
34806 C 86.31709151671265 84.05394191497852 64.87332090334215 C 0.0 **** -0.24
34807 H 86.22465023068725 84.76499358272567 64.0533299746269 H 0.0 **** 0.06
34808 H 87.3535255268475 83.72515490244349 64.95427607317728 H 0.0 **** 0.06
34809 H 85.67706121562179 83.1928872656575 64.68104463651548 H 0.0 **** 0.06
34810 H 86.0131902271118 84.53141302639199 65.80513978586711 H 0.0 **** 0.06
34811 C 67.26142230619695 120.37290999615482 137.00145814233963 C 0.0 **** -0.24
34812 H 67.06575782516518 120.16096299773892 138.05282533065383 H 0.0 **** 0.06
34813 H 66.38819368794549 120.0996375532726 136.40768706577467 H 0.0 **** 0.06
34814 H 68.12359805069133 119.79347677390706 136.66891752647024 H 0.0 **** 0.06
34815 H 67.46831241346337 121.43568309721138 136.87706414991067 H 0.0 **** 0.06
34816 C 28.85791546367102 67.54959151601966 98.0529340442879 C 0.0 **** -0.24
34817 H 28.66859468462721 67.91254833055764 97.0434014831859 H 0.0 **** 0.06
34818 H 28.22341341477747 66.68665527592427 98.25335666214761 H 0.0 **** 0.06
34819 H 28.635277957024925 68.33975531037675 98.77042607158992 H 0.0 **** 0.06
34820 H 29.90554558183959 67.26020192678479 98.14454701039529 H 0.0 **** 0.06
34821 C 49.95053329741384 125.71219981123588 72.50692780068653 C 0.0 **** -0.24
34822 H 50.9261561349021 126.15015361181221 72.29776141584017 H 0.0 **** 0.06
34823 H 50.0617154154277 124.90991968234323 73.236732033117 H 0.0 **** 0.06
34824 H 49.526992590122404 125.31128844279809 71.58686946707115 H 0.0 **** 0.06
34825 H 49.28691330718664 126.47843709569423 72.90831666264029 H 0.0 **** 0.06
34826 C 34.77788079944571 27.577146379568603 87.41956374890012 C 0.0 **** -0.24
34827 H 34.92538380981438 28.428185317576123 88.08593882453881 H 0.0 **** 0.06
34828 H 35.7043351380712 27.007414466700794 87.3487191315425 H 0.0 **** 0.06
34829 H 34.494892419863504 27.936496765510128 86.43009118899285 H 0.0 **** 0.06
34830 H 33.987065729035294 26.939975797403434 87.8144108045101 H 0.0 **** 0.06
34831 C 19.328733346821323 4.854467791901925 19.72383906799331 C 0.0 **** -0.24
34832 H 20.171436758672144 5.540579129809146 19.811476249273824 H 0.0 **** 0.06
34833 H 19.25405818754183 4.253582160856183 20.630909738760806 H 0.0 **** 0.06
34834 H 19.480311338552596 4.200382616294462 18.865968043620228 H 0.0 **** 0.06
34835 H 18.4090756832489 5.42434715238042 19.588401281401616 H 0.0 **** 0.06
34836 C 18.316892579191368 58.90473351264619 67.74077519299317 C 0.0 **** -0.24
34837 H 18.541134140581676 59.7548922149324 67.09742465736102 H 0.0 **** 0.06
34838 H 18.05834174685348 58.042189253881205 67.12604032355253 H 0.0 **** 0.06
34839 H 17.477157852805412 59.1527823183782 68.39036157391138 H 0.0 **** 0.06
34840 H 19.189512009611683 58.66812906129017 68.34956557045714 H 0.0 **** 0.06
34841 C 50.22865297696012 58.08777153136978 83.50980635277477 C 0.0 **** -0.24
34842 H 50.7283006686817 57.682142683901446 82.63062295906042 H 0.0 **** 0.06
34843 H 49.854299612653506 59.08791112267269 83.28550624093552 H 0.0 **** 0.06
34844 H 50.93650609440567 58.14267207059601 84.3369719738399 H 0.0 **** 0.06
34845 H 49.395345654873665 57.441119383824216 83.78495717788155 H 0.0 **** 0.06
34846 C 66.90451802087017 125.30789457490307 95.1715697712533 C 0.0 **** -0.24
34847 H 65.87156592031829 125.65360593062076 95.15276496437252 H 0.0 **** 0.06
34848 H 66.93336938090766 124.26737550566676 95.49765688874237 H 0.0 **** 0.06
34849 H 67.48023593622534 125.92212160382073 95.8648793421234 H 0.0 **** 0.06
34850 H 67.3328498114949 125.38742936387791 94.17295367558012 H 0.0 **** 0.06
34851 C 19.135108427526433 36.89847351397901 25.427152518937078 C 0.0 **** -0.24
34852 H 19.225982037282925 37.834875956731594 25.97714205577998 H 0.0 **** 0.06
34853 H 19.050579806278762 36.06990318985618 26.131408341595574 H 0.0 **** 0.06
34854 H 20.016594717883564 36.756581202165734 24.803053579390564 H 0.0 **** 0.06
34855 H 18.245594592071257 36.932148837407965 24.796861124380342 H 0.0 **** 0.06
34856 C 101.13863507321645 124.68683192771442 113.20668448433554 C 0.0 **** -0.24
34857 H 101.09646217747695 123.61647618561958 113.0067818541086 H 0.0 **** 0.06
34858 H 100.13603120600737 125.05474425388564 113.42606109032397 H 0.0 **** 0.06
34859 H 101.5316097687865 125.20371853253911 112.33160782835816 H 0.0 **** 0.06
34860 H 101.78879959518412 124.87232348541144 114.06076584316739 H 0.0 **** 0.06
34861 C 95.1410636983249 123.04227248156076 74.54903280053463 C 0.0 **** -0.24
34862 H 94.53214684853396 122.88928122583945 75.43926307545317 H 0.0 **** 0.06
34863 H 96.19041241857295 122.87157879378509 74.79345063638397 H 0.0 **** 0.06
34864 H 95.01272654545957 124.06363818456532 74.19210607244224 H 0.0 **** 0.06
34865 H 94.83016841581373 122.34408565766114 73.7718639999901 H 0.0 **** 0.06
34866 C 18.898517495849262 131.59598336652317 25.03666139689915 C 0.0 **** -0.24
34867 H 19.528476749213795 131.07590210860582 24.31510968012668 H 0.0 **** 0.06
34868 H 19.52467085022755 132.17142097245966 25.718664043958256 H 0.0 **** 0.06
34869 H 18.317714542232054 130.86774573744984 25.603532624210857 H 0.0 **** 0.06
34870 H 18.22185438287083 132.26848429442316 24.509185703294747 H 0.0 **** 0.06
34871 C 48.32518877675375 114.06266068015745 3.868209538828978 C 0.0 **** -0.24
34872 H 48.59104355769148 114.31825110117464 2.842935042979491 H 0.0 **** 0.06
34873 H 48.79001989055638 113.11454238694589 4.137890428086962 H 0.0 **** 0.06
34874 H 47.24169245998323 113.97340859905597 3.9514074604088023 H 0.0 **** 0.06
34875 H 48.676902658183735 114.84524327012252 4.540996970930621 H 0.0 **** 0.06
34876 C 38.11891366088099 15.518266535736018 18.006866294809498 C 0.0 **** -0.24
34877 H 38.01314688606526 16.215355421849495 17.17516287970321 H 0.0 **** 0.06
34878 H 38.09060782647677 14.49554050403222 17.6287401492215 H 0.0 **** 0.06
34879 H 37.30344327006473 15.66785264048363 18.712888246119178 H 0.0 **** 0.06
34880 H 39.07105697243378 15.693776797527832 18.508038266342197 H 0.0 **** 0.06
34881 C 54.16442511963177 54.662783881872485 134.5283282123649 C 0.0 **** -0.24
34882 H 53.09889090766353 54.52247797718701 134.3507413665498 H 0.0 **** 0.06
34883 H 54.67269350379445 54.829962651651044 133.57883700265717 H 0.0 **** 0.06
34884 H 54.57317414750216 53.77258281792547 135.00796810714644 H 0.0 **** 0.06
34885 H 54.313301787428884 55.52628975228856 135.17796618211392 H 0.0 **** 0.06
34886 C 69.11988322097908 20.78756745259092 111.85589132439611 C 0.0 **** -0.24
34887 H 70.00348541915218 20.734459810643358 112.49151839436996 H 0.0 **** 0.06
34888 H 68.73739816040775 19.781145158624838 111.68115300235692 H 0.0 **** 0.06
34889 H 69.38471508884189 21.246047961938984 110.90276394669559 H 0.0 **** 0.06
34890 H 68.35410810391994 21.387766721144715 112.34663091006075 H 0.0 **** 0.06
34891 C 88.0953928971304 6.051396329059884 41.79367130039469 C 0.0 **** -0.24
34892 H 87.79898066907231 5.003362669115546 41.770644391200676 H 0.0 **** 0.06
34893 H 87.46158861740894 6.622530544359023 41.11484663017461 H 0.0 **** 0.06
34894 H 89.13574678379581 6.141650484893688 41.48257163647065 H 0.0 **** 0.06
34895 H 87.98430755044234 6.438005607356843 42.806306147405564 H 0.0 **** 0.06
34896 C 25.103867648798094 36.01965583201854 81.78878520841647 C 0.0 **** -0.24
34897 H 25.567433841825213 35.55857877139141 80.91727827208962 H 0.0 **** 0.06
34898 H 24.859483992636584 35.250451988436566 82.52158678529531 H 0.0 **** 0.06
34899 H 24.192247618790795 36.53462300535256 81.48521510649527 H 0.0 **** 0.06
34900 H 25.795271220477474 36.736936315489544 82.2313119114396 H 0.0 **** 0.06
34901 C 24.72658051394575 97.61600323253107 125.09820254162803 C 0.0 **** -0.24
34902 H 25.59700041418293 97.37464222276365 124.48793118228821 H 0.0 **** 0.06
34903 H 23.85863788157056 97.75714262230618 124.45406332990555 H 0.0 **** 0.06
34904 H 24.918062107556153 98.53249102902771 125.65650710910826 H 0.0 **** 0.06
34905 H 24.535070754403648 96.7997520450099 125.79426435081261 H 0.0 **** 0.06
34906 C 22.643931619759343 132.4862767536231 124.36047417757226 C 0.0 **** -0.24
34907 H 22.874462733816728 132.04101192417363 123.39246192806007 H 0.0 **** 0.06
34908 H 23.1312404165501 131.91233895243408 125.14898329154732 H 0.0 **** 0.06
34909 H 21.565500352390103 132.47708941596727 124.51752716402376 H 0.0 **** 0.06
34910 H 23.00604514516823 133.514581347937 124.381629761655 H 0.0 **** 0.06
34911 C 101.48246355171858 22.82115976609927 87.40122557473653 C 0.0 **** -0.24
34912 H 100.75928234003867 23.636281092062347 87.36643699820155 H 0.0 **** 0.06
34913 H 101.13045168964459 22.051764996423316 88.08718790712982 H 0.0 **** 0.06
34914 H 102.44343458192536 23.20340580573685 87.746167203763 H 0.0 **** 0.06
34915 H 101.5975038313189 22.39662194406469 86.4038718575309 H 0.0 **** 0.06
34916 C 98.4859404097839 46.76946461619971 69.06672290933311 C 0.0 **** -0.24
34917 H 99.24009781935155 47.527638021021474 69.27776023385583 H 0.0 **** 0.06
34918 H 97.56550461562526 47.0154693371138 69.59730630583832 H 0.0 **** 0.06
34919 H 98.84660873849796 45.79518447760192 69.39737628483456 H 0.0 **** 0.06
34920 H 98.29064789217381 46.73994614648775 67.99465221872951 H 0.0 **** 0.06
34921 C 54.26688236850907 10.888570051982704 113.62536561624464 C 0.0 **** -0.24
34922 H 53.62273521563459 10.259217212605158 114.23890084748717 H 0.0 **** 0.06
34923 H 54.81675849310206 11.579533834974015 114.26526983896366 H 0.0 **** 0.06
34924 H 53.65829763350331 11.453109967435939 112.91873673199734 H 0.0 **** 0.06
34925 H 54.972079873905116 10.262410849145823 113.07783640033318 H 0.0 **** 0.06
34926 C 74.13771478883586 123.0991896461432 3.6227613989044585 C 0.0 **** -0.24
34927 H 74.28911840305699 123.62058483248535 4.568087840794618 H 0.0 **** 0.06
34928 H 73.23726993019136 122.48660935934976 3.6877122362249963 H 0.0 **** 0.06
34929 H 74.99728660309052 122.46199493355238 3.4176170508944494 H 0.0 **** 0.06
34930 H 74.02521270467872 123.82792923259444 2.820788268837987 H 0.0 **** 0.06
34931 C 119.49710910358739 129.25458445392815 130.60574678775004 C 0.0 **** -0.24
34932 H 119.18825259564622 130.2977292043949 130.54012867148748 H 0.0 **** 0.06
34933 H 119.80275623860075 129.02950893188256 131.6278411720297 H 0.0 **** 0.06
34934 H 120.33382577555875 129.08001606521822 129.92928529332102 H 0.0 **** 0.06
34935 H 118.6625374159842 128.61114622408417 130.324802901848 H 0.0 **** 0.06
34936 C 125.740020557984 51.13059257128907 77.33007190532578 C 0.0 **** -0.24
34937 H 126.82199990661644 51.22907245783142 77.41435377840526 H 0.0 **** 0.06
34938 H 125.49486129768763 50.142101777869925 76.94017063193701 H 0.0 **** 0.06
34939 H 125.35708832873138 51.89449362848177 76.6526250871575 H 0.0 **** 0.06
34940 H 125.28681602023153 51.256031075745 78.31285104560948 H 0.0 **** 0.06
34941 C 71.87383344258046 128.39870248111924 117.06308014824333 C 0.0 **** -0.24
34942 H 71.56824426526293 129.15665432446576 117.78444574645721 H 0.0 **** 0.06
34943 H 72.96237041791917 128.37518070700128 117.00085395939504 H 0.0 **** 0.06
34944 H 71.45855714565874 128.64029265735707 116.08452363006023 H 0.0 **** 0.06
34945 H 71.50660613930575 127.42474548725369 117.38323611621956 H 0.0 **** 0.06
34946 C 33.45611604537309 57.746748761816974 76.45740468831029 C 0.0 **** -0.24
34947 H 33.5527210945481 58.528344047910565 77.21059543977199 H 0.0 **** 0.06
34948 H 33.58093251838642 58.18075048942542 75.46468142770105 H 0.0 **** 0.06
34949 H 32.470700339192156 57.2889237492965 76.53312209708247 H 0.0 **** 0.06
34950 H 34.222497043299775 56.98891058121147 76.62067296366179 H 0.0 **** 0.06
34951 C 82.13506307749688 95.022949277402 80.17372605439402 C 0.0 **** -0.24
34952 H 82.4642553579617 95.06694682632775 81.21152790662865 H 0.0 **** 0.06
34953 H 81.44730216703164 95.84478361961928 79.97563192094674 H 0.0 **** 0.06
34954 H 81.6290884343725 94.07394687768306 79.9933480725374 H 0.0 **** 0.06
34955 H 82.99933282948787 95.10521163989304 79.51471333989855 H 0.0 **** 0.06
34956 C 16.1299705017816 137.02558735193142 25.173730323030895 C 0.0 **** -0.24
34957 H 15.924479976020109 136.07669497720264 25.66811571684343 H 0.0 **** 0.06
34958 H 15.48123993025996 137.79831185620003 25.587901317101142 H 0.0 **** 0.06
34959 H 15.940665890617367 136.9268716715538 24.105166797379297 H 0.0 **** 0.06
34960 H 17.172203093577252 137.30159979695713 25.333968947898654 H 0.0 **** 0.06
34961 C 45.10825046826906 99.0819954374216 105.3149065411125 C 0.0 **** -0.24
34962 H 46.14451534396588 99.38917368767912 105.17214550253276 H 0.0 **** 0.06
34963 H 44.44420971223718 99.88242669532161 104.98542082849632 H 0.0 **** 0.06
34964 H 44.93336857638266 98.87520241755442 106.37117548254696 H 0.0 **** 0.06
34965 H 44.91152980559741 98.1835471843672 104.73081088820825 H 0.0 **** 0.06
34966 C 26.890870612286307 120.33615413294007 71.72390000955703 C 0.0 **** -0.24
34967 H 27.855651859996556 119.83363995061984 71.800305189658 H 0.0 **** 0.06
34968 H 26.09098025885079 119.61395789895971 71.8912055483379 H 0.0 **** 0.06
34969 H 26.785443364156095 120.77081702977944 70.72957141564144 H 0.0 **** 0.06
34970 H 26.832006665029866 121.12516827753115 72.47376118761375 H 0.0 **** 0.06
34971 C 59.13901531887778 94.1990127296067 18.80859321881003 C 0.0 **** -0.24
34972 H 58.44201045686462 93.6286018507949 18.193997619220866 H 0.0 **** 0.06
34973 H 58.96661032192178 93.9701206094644 19.860626494266057 H 0.0 **** 0.06
34974 H 58.984690948296134 95.26424565961725 18.638923482896246 H 0.0 **** 0.06
34975 H 60.16138709768666 93.93275763293695 18.54063011740422 H 0.0 **** 0.06
34976 C 17.216840918446863 64.83377854322498 116.33811532221577 C 0.0 **** -0.24
34977 H 16.517665445831838 65.11994241345587 115.55309054004337 H 0.0 **** 0.06
34978 H 17.95690661699019 65.62329860213866 116.47081771704944 H 0.0 **** 0.06
34979 H 17.71968301274 63.90783648677534 116.05699212627687 H 0.0 **** 0.06
34980 H 16.673958974395156 64.68295793784668 117.27122432138728 H 0.0 **** 0.06
34981 C 7.213122598900473 117.96605094704049 77.99898211000057 C 0.0 **** -0.24
34982 H 8.160476149141878 117.42797882416053 77.97095197247465 H 0.0 **** 0.06
34983 H 7.379895256191773 119.00875691413012 77.72948593357326 H 0.0 **** 0.06
34984 H 6.794609628322885 117.9121392365943 79.00386392939399 H 0.0 **** 0.06
34985 H 6.518080745636009 117.51403548968966 77.29159615016296 H 0.0 **** 0.06
34986 C 62.47294549174174 56.56263020875588 50.40150684976747 C 0.0 **** -0.24
34987 H 62.81390871689496 55.60769918323513 50.00067906838454 H 0.0 **** 0.06
34988 H 61.80985166168978 56.385403565177285 51.247683134907135 H 0.0 **** 0.06
34989 H 61.936839302280674 57.110704569949405 49.62681161748718 H 0.0 **** 0.06
34990 H 63.333977678109704 57.14621630370732 50.72913920592468 H 0.0 **** 0.06
34991 C 128.48187438065415 84.12230076208438 25.788001199747697 C 0.0 **** -0.24
34992 H 128.10443900294538 83.27373265850122 25.217130999341748 H 0.0 **** 0.06
34993 H 128.30924744717584 85.04182827063914 25.22772518078736 H 0.0 **** 0.06
34994 H 129.54987787020653 83.9971008184577 25.962842629134087 H 0.0 **** 0.06
34995 H 127.96098651216496 84.17552704742549 26.744843363893693 H 0.0 **** 0.06
34996 C 46.37921020080762 47.127871786857355 96.46205183025728 C 0.0 **** -0.24
34997 H 46.621448112958035 47.54808342621671 97.43803493456727 H 0.0 **** 0.06
34998 H 46.413538425423866 46.03932573537736 96.51688043296707 H 0.0 **** 0.06
34999 H 47.10103104460802 47.47877535956599 95.72516352771237 H 0.0 **** 0.06
35000 H 45.378046865007946 47.44451979278631 96.16895270757834 H 0.0 **** 0.06
35001 C 95.55420311551165 97.31184252003946 5.886529723395537 C 0.0 **** -0.24
35002 H 96.51747057240493 96.84958199551664 6.097645769235147 H 0.0 **** 0.06
35003 H 94.89864146691713 96.58331455393153 5.409584250435589 H 0.0 **** 0.06
35004 H 95.69838616604255 98.16267564706288 5.219689893295893 H 0.0 **** 0.06
35005 H 95.10175697547743 97.65321411255778 6.818372014853754 H 0.0 **** 0.06
35006 C 61.263323023118346 71.50595328385072 78.53096599729396 C 0.0 **** -0.24
35007 H 62.06564877116227 72.2386046477322 78.61326056955409 H 0.0 **** 0.06
35008 H 60.61116808954546 71.77321814526964 77.69960356794284 H 0.0 **** 0.06
35009 H 60.68733998339599 71.49260572764877 79.4559575738317 H 0.0 **** 0.06
35010 H 61.690831625848546 70.51838945764618 78.35467875182458 H 0.0 **** 0.06
35011 C 40.66992346013785 80.98702568075021 102.38805853194583 C 0.0 **** -0.24
35012 H 41.58303761350936 80.97474972679498 101.79285444085224 H 0.0 **** 0.06
35013 H 40.416115616021244 82.01709020597619 102.64036144629989 H 0.0 **** 0.06
35014 H 40.82521362291868 80.41567305879136 103.30264377053217 H 0.0 **** 0.06
35015 H 39.85705936570858 80.54178437148722 101.81448447704236 H 0.0 **** 0.06
35016 C 45.5687650429351 92.06032402437661 17.344742157592776 C 0.0 **** -0.24
35017 H 45.90251223405326 91.88543698651664 16.321740976326822 H 0.0 **** 0.06
35018 H 46.322859010743116 91.69068412931557 18.04036040584529 H 0.0 **** 0.06
35019 H 44.62890253963235 91.53501003468345 17.51385968905572 H 0.0 **** 0.06
35020 H 45.421305400103705 93.12813415950244 17.500861179629496 H 0.0 **** 0.06
35021 C 127.88329341097516 8.736626175570972 111.00191861829353 C 0.0 **** -0.24
35022 H 127.45625006086298 9.066277068285412 110.05456686374578 H 0.0 **** 0.06
35023 H 128.47868982077284 7.837938635461644 110.83847469228044 H 0.0 **** 0.06
35024 H 127.08048616486582 8.518998835971654 111.70546170135037 H 0.0 **** 0.06
35025 H 128.51750494641198 9.52494587357834 111.40738235593176 H 0.0 **** 0.06
35026 C 111.88284049525606 105.12243148970762 109.19273369508142 C 0.0 **** -0.24
35027 H 111.56290939445725 104.84329699471243 108.1881884518759 H 0.0 **** 0.06
35028 H 112.82747842699172 105.66272303200162 109.13601280006544 H 0.0 **** 0.06
35029 H 112.01357426248416 104.22266026302947 109.7951692131063 H 0.0 **** 0.06
35030 H 111.12551608658566 105.75933436366572 109.65033019109208 H 0.0 **** 0.06
35031 C 113.14071115328804 45.247254135281395 71.04093041706236 C 0.0 **** -0.24
35032 H 112.52639401605768 44.41255098537036 71.37773621098582 H 0.0 **** 0.06
35033 H 113.29145836808024 45.94368160502847 71.8653296434809 H 0.0 **** 0.06
35034 H 112.63978000134719 45.758061832267856 70.21869655048773 H 0.0 **** 0.06
35035 H 114.10748161478068 44.871893759156734 70.70103681295144 H 0.0 **** 0.06
35036 C 107.58245315647203 7.253665181220981 84.23832331615624 C 0.0 **** -0.24
35037 H 107.53697857596772 7.7813055811005825 83.2856467020528 H 0.0 **** 0.06
35038 H 106.60172150370462 6.840432566422294 84.47242427851359 H 0.0 **** 0.06
35039 H 107.88303246932065 7.947453188228735 85.02386922245547 H 0.0 **** 0.06
35040 H 108.31075883984461 6.4453580805426895 84.17045183453382 H 0.0 **** 0.06
35041 C 120.54381027527879 8.86551022239911 76.91706086735343 C 0.0 **** -0.24
35042 H 120.284807666292 9.923333294349959 76.88518592700007 H 0.0 **** 0.06
35043 H 119.64836057359426 8.27807768597711 77.12046420308579 H 0.0 **** 0.06
35044 H 121.27660068564643 8.695065544537783 77.70584277200055 H 0.0 **** 0.06
35045 H 120.96600469238524 8.565820217149962 75.95755742031338 H 0.0 **** 0.06
35046 C 114.85218879410664 45.61708175523606 24.329018984583293 C 0.0 **** -0.24
35047 H 114.96682645796747 44.532796666922835 24.342881059011496 H 0.0 **** 0.06
35048 H 115.68920819689166 46.07720787969663 24.85402043549444 H 0.0 **** 0.06
35049 H 113.9182624240652 45.888511715836614 24.822257693002932 H 0.0 **** 0.06
35050 H 114.83282706814279 45.96729378877629 23.296987629717606 H 0.0 **** 0.06
35051 C 70.04583945075042 63.75078474751592 10.011334274978168 C 0.0 **** -0.24
35052 H 69.23647484998595 63.82174105887742 10.738670685523886 H 0.0 **** 0.06
35053 H 69.63112553216045 63.77024577882541 9.003592896014595 H 0.0 **** 0.06
35054 H 70.58938591262773 62.81818884730883 10.163008914531531 H 0.0 **** 0.06
35055 H 70.72550663739199 64.59284610214775 10.141177417667933 H 0.0 **** 0.06
35056 C 1.7102663849871078 120.3906345950108 131.02329665214714 C 0.0 **** -0.24
35057 H 1.131819794343187 120.27956172758314 131.9401490919763 H 0.0 **** 0.06
35058 H 1.044884870105932 120.66436988083547 130.20441845578245 H 0.0 **** 0.06
35059 H 2.206877015588475 119.44878452646981 130.79024646911927 H 0.0 **** 0.06
35060 H 2.459318865143416 121.1716913949902 131.15983527821413 H 0.0 **** 0.06
35061 C 134.6181535497297 135.03636872365837 18.32873262434606 C 0.0 **** -0.24
35062 H 133.97781871293094 135.6760056087769 18.937082085719965 H 0.0 **** 0.06
35063 H 134.00026916139257 134.36751367884943 17.729822062188475 H 0.0 **** 0.06
35064 H 135.2658920120446 134.44857962176792 18.979039406862398 H 0.0 **** 0.06
35065 H 135.2284910258565 135.65430120348208 17.670444193163732 H 0.0 **** 0.06
35066 C 111.95434936452787 3.1512536267060227 106.56793476685462 C 0.0 **** -0.24
35067 H 111.95892482222928 3.823344537708863 105.70954443860153 H 0.0 **** 0.06
35068 H 111.11971362529678 3.4041158813761285 107.22229548889315 H 0.0 **** 0.06
35069 H 112.8903691177454 3.2576489419678865 107.11641642451454 H 0.0 **** 0.06
35070 H 111.84998250548625 2.1229483454733895 106.22457958506175 H 0.0 **** 0.06
35071 C 79.43357203484429 81.92930407611163 109.81735991138368 C 0.0 **** -0.24
35072 H 78.63879987613002 81.88123028665149 110.5622969728507 H 0.0 **** 0.06
35073 H 79.07124516133628 82.45549394756634 108.9341608839008 H 0.0 **** 0.06
35074 H 79.73234703885423 80.91807072843733 109.54098212294394 H 0.0 **** 0.06
35075 H 80.28925148964949 82.46110344163537 110.23251907684147 H 0.0 **** 0.06
35076 C 39.72442085049687 5.623478295542782 109.80198910509608 C 0.0 **** -0.24
35077 H 40.64687704687168 5.802573955845617 109.24949713336412 H 0.0 **** 0.06
35078 H 39.046184990750476 6.465393186038369 109.65770962327625 H 0.0 **** 0.06
35079 H 39.95133351651231 5.5161045542152465 110.86253875917541 H 0.0 **** 0.06
35080 H 39.2536404307115 4.710604266373366 109.43591000700036 H 0.0 **** 0.06
35081 C 95.1233224985864 22.623449183702064 116.88475331764539 C 0.0 **** -0.24
35082 H 95.93505956399098 22.064851801910663 117.35023365149067 H 0.0 **** 0.06
35083 H 94.99028787569344 23.572278523993987 117.40505107947453 H 0.0 **** 0.06
35084 H 94.20186106562744 22.04362324911733 116.94530754593566 H 0.0 **** 0.06
35085 H 95.36548697246286 22.813336591161203 115.8391696554346 H 0.0 **** 0.06
35086 C 13.46070064139078 48.67873477778777 118.94602272190261 C 0.0 **** -0.24
35087 H 13.988472229489673 49.5818243125064 118.63729700832377 H 0.0 **** 0.06
35088 H 13.092168191210728 48.803966528691234 119.96423680098292 H 0.0 **** 0.06
35089 H 14.142472691411804 47.8292317736022 118.90767468458027 H 0.0 **** 0.06
35090 H 12.620497702338206 48.50199322358456 118.27469754387391 H 0.0 **** 0.06
35091 C 105.75717173197741 90.17100704274445 96.68124224501803 C 0.0 **** -0.24
35092 H 106.42839776547002 89.48862873129006 96.16109471725957 H 0.0 **** 0.06
35093 H 106.28434375434342 90.63447321611261 97.5151761928569 H 0.0 **** 0.06
35094 H 104.89739760624084 89.616129063332 97.05767812945263 H 0.0 **** 0.06
35095 H 105.41757295008591 90.94382623807354 95.99134715123279 H 0.0 **** 0.06
35096 C 84.28173131462177 96.47005617433126 13.963542609676203 C 0.0 **** -0.24
35097 H 83.4737975656534 96.1151987706498 14.604743375223627 H 0.0 **** 0.06
35098 H 84.86573923358793 95.61898875493009 13.612388672916715 H 0.0 **** 0.06
35099 H 84.9250291543135 97.14317011919391 14.53049638208708 H 0.0 **** 0.06
35100 H 83.8610074131775 97.00148184501674 13.11018266455282 H 0.0 **** 0.06
35101 C 112.94727923229226 127.19904249256456 41.70285286343318 C 0.0 **** -0.24
35102 H 113.23173473487395 126.3092864955646 41.14218510056344 H 0.0 **** 0.06
35103 H 112.42156025127989 127.89101243195354 41.04478810615669 H 0.0 **** 0.06
35104 H 113.84188848718512 127.68138374531607 42.098215119909526 H 0.0 **** 0.06
35105 H 112.29400905429964 126.91393080636787 42.52786164521885 H 0.0 **** 0.06
35106 C 50.51381215276572 45.81654003936136 65.84581427095452 C 0.0 **** -0.24
35107 H 49.84272241804861 44.98598159931018 66.0665048781596 H 0.0 **** 0.06
35108 H 49.9844492627161 46.562008489283315 65.25263911227393 H 0.0 **** 0.06
35109 H 51.37325475986731 45.44915041174022 65.28405597878168 H 0.0 **** 0.06
35110 H 50.8539476526052 46.266598051877935 66.77753290201909 H 0.0 **** 0.06
35111 C 38.18042795381015 89.53656828353002 19.203936920697004 C 0.0 **** -0.24
35112 H 37.64847456803807 89.48044584006254 18.25443762704066 H 0.0 **** 0.06
35113 H 37.96649928473556 88.64563555568185 19.793907629454736 H 0.0 **** 0.06
35114 H 37.85357554565053 90.42196638450258 19.750722841952012 H 0.0 **** 0.06
35115 H 39.2516858115348 89.60083322454011 19.016817658757162 H 0.0 **** 0.06
35116 C 129.67096858492806 55.765031430820756 0.47147091281806297 C 0.0 **** -0.24
35117 H 130.51167117548482 55.96125802196029 1.1366621074179761 H 0.0 **** 0.06
35118 H 129.94049457953474 56.04894733776787 -0.5465902994638157 H 0.0 **** 0.06
35119 H 128.8081597964102 56.34665542624701 0.7948879008911831 H 0.0 **** 0.06
35120 H 129.425593769113 54.70374766806003 0.5001589220633491 H 0.0 **** 0.06
35121 C 98.43706147811035 128.19803718993643 54.94761847967767 C 0.0 **** -0.24
35122 H 98.4378768008223 128.60962755439505 55.95707069886538 H 0.0 **** 0.06
35123 H 99.35401019152476 128.4915177204569 54.43540236111981 H 0.0 **** 0.06
35124 H 97.5764642395629 128.5811343950731 54.399862188052495 H 0.0 **** 0.06
35125 H 98.38078896041219 127.11081120486921 54.99869793395946 H 0.0 **** 0.06
35126 C 126.95631412586789 48.97812189537754 42.59928284899581 C 0.0 **** -0.24
35127 H 126.342975011047 49.850910197392636 42.82138582860745 H 0.0 **** 0.06
35128 H 126.9704795854195 48.80778252179215 41.52314723417683 H 0.0 **** 0.06
35129 H 126.53907748727346 48.10444426509912 43.10042760665371 H 0.0 **** 0.06
35130 H 127.97242263254574 49.14972517450519 42.954354495784116 H 0.0 **** 0.06
35131 C 106.77032510365257 116.32965630404331 32.48629694734743 C 0.0 **** -0.24
35132 H 105.92218110334426 116.8168609355819 32.96523783184216 H 0.0 **** 0.06
35133 H 106.78332162810457 116.58143711385819 31.425171769502754 H 0.0 **** 0.06
35134 H 106.68312721233559 115.24995969867027 32.60337291158572 H 0.0 **** 0.06
35135 H 107.69548951360792 116.67202877737176 32.95194708729855 H 0.0 **** 0.06
35136 C 70.29133080254906 120.23590263975824 122.73688234870852 C 0.0 **** -0.24
35137 H 70.94413840012845 121.0876020864619 122.93031035808033 H 0.0 **** 0.06
35138 H 70.60194043870763 119.39260339071924 123.3545530869275 H 0.0 **** 0.06
35139 H 70.35607391857809 119.959838748423 121.6851024044778 H 0.0 **** 0.06
35140 H 69.26261743015283 120.50587774283086 122.97987699782463 H 0.0 **** 0.06
35141 C 89.1504065373471 110.63662655774485 30.717591456380774 C 0.0 **** -0.24
35142 H 90.2275498903692 110.6224110512627 30.555316638085515 H 0.0 **** 0.06
35143 H 88.87738863807795 111.54059984791232 31.26238003708545 H 0.0 **** 0.06
35144 H 88.85756046440889 109.76033302780397 31.296758042300382 H 0.0 **** 0.06
35145 H 88.6377916391038 110.62426350093705 29.755848677732246 H 0.0 **** 0.06
35146 C 17.416617281515244 80.53845595231894 120.81763571808429 C 0.0 **** -0.24
35147 H 16.39382149609935 80.87448803075836 120.6495248981079 H 0.0 **** 0.06
35148 H 17.405318328554642 79.62852207327415 121.41902395275258 H 0.0 **** 0.06
35149 H 17.9728625846019 81.31459384103903 121.3433440073257 H 0.0 **** 0.06
35150 H 17.894025992431835 80.3345828396051 119.85900505151287 H 0.0 **** 0.06
35151 C 72.77746231036414 20.03027808715146 95.67025925360888 C 0.0 **** -0.24
35152 H 72.80056439648376 18.981464406350128 95.96566948519454 H 0.0 **** 0.06
35153 H 71.77437331072886 20.288908104071538 95.32899088167441 H 0.0 **** 0.06
35154 H 73.4900916591926 20.1955772409583 94.8621709750349 H 0.0 **** 0.06
35155 H 73.04310107369807 20.65364073128849 96.52335131660202 H 0.0 **** 0.06
35156 C 83.07936407354897 101.95243384422292 22.215673953224517 C 0.0 **** -0.24
35157 H 83.28864349618698 102.95232242516424 22.59440995687649 H 0.0 **** 0.06
35158 H 83.78131937461015 101.2442497756962 22.65734600305923 H 0.0 **** 0.06
35159 H 83.18836835014869 101.94375078920154 21.131191250677844 H 0.0 **** 0.06
35160 H 82.0614300078137 101.66856101328085 22.481469897395094 H 0.0 **** 0.06
35161 C 28.842329504134973 103.33949159766681 48.0767423528481 C 0.0 **** -0.24
35162 H 29.24434165453828 102.34132829112502 48.248679197679905 H 0.0 **** 0.06
35163 H 27.75758185062226 103.31876987047124 48.18960191508313 H 0.0 **** 0.06
35164 H 29.0973973861447 103.66466118404063 47.0675673285196 H 0.0 **** 0.06
35165 H 29.269997125234497 104.03320704503025 48.801120970109935 H 0.0 **** 0.06
35166 C 91.74415135361019 16.394771888836047 84.60873981719013 C 0.0 **** -0.24
35167 H 91.46556109827615 17.233923262048307 83.97130079661645 H 0.0 **** 0.06
35168 H 90.96817413042982 15.630851462708776 84.56288155380753 H 0.0 **** 0.06
35169 H 91.85455622614383 16.73978126298556 85.63638436630572 H 0.0 **** 0.06
35170 H 92.6884785897354 15.974526969674372 84.26340618388397 H 0.0 **** 0.06
35171 C 3.1166984619999276 86.75556155534628 85.91686783971494 C 0.0 **** -0.24
35172 H 4.17108378739097 86.72999977579587 85.64190195533294 H 0.0 **** 0.06
35173 H 2.9215609981879105 85.99588042456776 86.67480192900145 H 0.0 **** 0.06
35174 H 2.5071518275567968 86.55484219059406 85.036860673291 H 0.0 **** 0.06
35175 H 2.868232955655472 87.7388840981605 86.31513369615607 H 0.0 **** 0.06
35176 C 84.80037102845569 78.9035061120899 88.80936494859587 C 0.0 **** -0.24
35177 H 85.87686874847782 78.8722837193474 88.64055472121868 H 0.0 **** 0.06
35178 H 84.43253837405365 79.91447404916687 88.63059949734424 H 0.0 **** 0.06
35179 H 84.58550848442363 78.61458789034651 89.83844970495844 H 0.0 **** 0.06
35180 H 84.30617218352808 78.21047859098508 88.12790368344832 H 0.0 **** 0.06
35181 C 48.6927716089271 14.186004234686656 30.31191907298195 C 0.0 **** -0.24
35182 H 48.92417367902135 13.791607000144616 29.32215748855849 H 0.0 **** 0.06
35183 H 48.7209815301827 13.375819930661251 31.040656791700215 H 0.0 **** 0.06
35184 H 47.6983597736191 14.631813607259403 30.301329033900466 H 0.0 **** 0.06
35185 H 49.42825610932174 14.944711129271887 30.58118196452157 H 0.0 **** 0.06
35186 C 129.8653079488762 3.0716673742032903 103.87251654157646 C 0.0 **** -0.24
35187 H 129.22077822102074 2.809564586264827 103.0322090269953 H 0.0 **** 0.06
35188 H 130.89693415304882 2.812443052070087 103.63411101293946 H 0.0 **** 0.06
35189 H 129.5469636101783 2.523130618780929 104.759090497101 H 0.0 **** 0.06
35190 H 129.79338623000578 4.142670157011992 104.06336829693197 H 0.0 **** 0.06
35191 C 105.33233807410463 89.6744258902829 64.77436926312657 C 0.0 **** -0.24
35192 H 106.35552466322628 89.3103912345869 64.86287347959797 H 0.0 **** 0.06
35193 H 105.3190591675985 90.57653316775432 64.16222612643622 H 0.0 **** 0.06
35194 H 104.94097139138829 89.90160116104784 65.76614675410372 H 0.0 **** 0.06
35195 H 104.71379707420544 88.90917799774257 64.30623069236856 H 0.0 **** 0.06
35196 C 5.647373891172492 109.88957136633627 95.92925675817577 C 0.0 **** -0.24
35197 H 5.145291952022632 110.49528306613476 95.17568720833455 H 0.0 **** 0.06
35198 H 5.920382545175812 108.9258134860628 95.49768039728355 H 0.0 **** 0.06
35199 H 4.976439879551407 109.73197740997455 96.77456251645583 H 0.0 **** 0.06
35200 H 6.545587053991881 110.4038574265166 96.2700704802792 H 0.0 **** 0.06
35201 C 121.6475893970032 10.949322495649085 53.867860444382416 C 0.0 **** -0.24
35202 H 120.62617330088091 11.180190444957816 54.169423346496956 H 0.0 **** 0.06
35203 H 122.17783781931838 11.874228794335636 53.64338559005563 H 0.0 **** 0.06
35204 H 121.62960636234698 10.315429696926003 52.98076538893679 H 0.0 **** 0.06
35205 H 122.15570598251644 10.426526778847574 54.67817534374558 H 0.0 **** 0.06
35206 C 113.11354790633865 26.869405345642022 41.014251830983 C 0.0 **** -0.24
35207 H 113.31477140629914 27.66086768568215 41.73597859013215 H 0.0 **** 0.06
35208 H 113.79566961012955 26.03698290547274 41.18914596105313 H 0.0 **** 0.06
35209 H 113.25975227566806 27.25393679796703 40.00458409718567 H 0.0 **** 0.06
35210 H 112.08504874188347 26.528046167143714 41.12735530885085 H 0.0 **** 0.06
35211 C 65.74718969229127 74.8826809128202 87.44511378382816 C 0.0 **** -0.24
35212 H 64.8577845991295 74.3549866557658 87.78901696477651 H 0.0 **** 0.06
35213 H 65.47425798419715 75.57116588364204 86.64568350802921 H 0.0 **** 0.06
35214 H 66.4752672058828 74.16221359951328 87.07167159162849 H 0.0 **** 0.06
35215 H 66.18110098325172 75.44147863289004 88.27513500332138 H 0.0 **** 0.06
35216 C 79.65529568562386 51.08016579930728 106.21505684495679 C 0.0 **** -0.24
35217 H 80.28578866417104 51.10548895631797 105.32576136785788 H 0.0 **** 0.06
35218 H 78.98986492723367 51.943325611731225 106.21401095887055 H 0.0 **** 0.06
35219 H 80.28295586139137 51.10570915443547 107.10520023222593 H 0.0 **** 0.06
35220 H 79.06344330101302 50.1642335031588 106.21335463051372 H 0.0 **** 0.06
35221 C 26.764363223025555 86.22627869963861 45.65186254241178 C 0.0 **** -0.24
35222 H 27.733119160723447 86.13139256305405 46.14168861820653 H 0.0 **** 0.06
35223 H 26.081804045695662 85.47437683321678 46.04948506723507 H 0.0 **** 0.06
35224 H 26.882892352012107 86.07930537733822 44.578832859288354 H 0.0 **** 0.06
35225 H 26.359474796222855 87.22099526929254 45.83945889699517 H 0.0 **** 0.06
35226 C 76.87229436206113 90.6059667051766 107.00163189583856 C 0.0 **** -0.24
35227 H 76.3104517799731 91.52979312524684 107.14331736126744 H 0.0 **** 0.06
35228 H 77.698657545472 90.57153524355037 107.7117357156979 H 0.0 **** 0.06
35229 H 77.26347168714821 90.57144117050491 105.98556679949263 H 0.0 **** 0.06
35230 H 76.21434906922127 89.75284322836987 107.16685714380372 H 0.0 **** 0.06
35231 C 76.72953137741519 69.7816523000692 19.977270723507957 C 0.0 **** -0.24
35232 H 77.63922633248961 70.353546537581 19.793975506937386 H 0.0 **** 0.06
35233 H 76.73656725798799 69.40633700801254 21.00111741095742 H 0.0 **** 0.06
35234 H 76.68199503636674 68.94295393096002 19.282031594239015 H 0.0 **** 0.06
35235 H 75.86117106962527 70.42429886529504 19.831796207678224 H 0.0 **** 0.06
35236 C 93.11720259596507 120.75350517621033 122.00939569416528 C 0.0 **** -0.24
35237 H 92.85946189216924 120.5234592165846 120.9747243787015 H 0.0 **** 0.06
35238 H 92.2803815013338 120.492990023832 122.65868950114421 H 0.0 **** 0.06
35239 H 93.33254156397408 121.81685309209831 122.10218733536706 H 0.0 **** 0.06
35240 H 93.9961178945515 120.17725871750575 122.30058984971652 H 0.0 **** 0.06
35241 C 17.852031859317492 133.9242543009708 48.95143875838045 C 0.0 **** -0.24
35242 H 18.13858441531687 134.75352575359196 49.598748255685905 H 0.0 **** 0.06
35243 H 18.745230510183177 133.39006256691067 48.627604819474925 H 0.0 **** 0.06
35244 H 17.322589865957184 134.31067817153243 48.08039694476473 H 0.0 **** 0.06
35245 H 17.19995562908798 133.24420422896458 49.500945466380074 H 0.0 **** 0.06
35246 C 129.48276181764203 76.29201817232848 93.89253372059837 C 0.0 **** -0.24
35247 H 128.70786002060845 75.69340150078526 94.37112575600149 H 0.0 **** 0.06
35248 H 129.0284007521219 76.94730566234227 93.14946549729129 H 0.0 **** 0.06
35249 H 130.2016756821139 75.63309417707228 93.40624362436908 H 0.0 **** 0.06
35250 H 129.99350545646737 76.89335087169911 94.64529930754647 H 0.0 **** 0.06
35251 C 8.162903687141466 109.4764485956274 121.74384496541306 C 0.0 **** -0.24
35252 H 7.446628849501394 108.67287997114005 121.91687650243887 H 0.0 **** 0.06
35253 H 7.707567360943642 110.23989416137212 121.11320025534717 H 0.0 **** 0.06
35254 H 9.046611329594953 109.07393688780115 121.24700166151312 H 0.0 **** 0.06
35255 H 8.452427943369344 109.91754605976789 122.69820068748695 H 0.0 **** 0.06
35256 C 58.656306145211374 76.51914048341578 41.667387722280836 C 0.0 **** -0.24
35257 H 58.945892024567456 75.73756344954658 40.965033526150535 H 0.0 **** 0.06
35258 H 58.900797709565154 77.49438486934135 41.245707331634065 H 0.0 **** 0.06
35259 H 59.19577313323512 76.3830888869166 42.60524242333281 H 0.0 **** 0.06
35260 H 57.58403631474124 76.46183632178729 41.854095238118845 H 0.0 **** 0.06
35261 C 136.19678404045135 126.76767670563208 47.9020079598738 C 0.0 **** -0.24
35262 H 137.20824743179304 126.43044412565703 47.67685239601508 H 0.0 **** 0.06
35263 H 135.7939282734357 127.30658021162006 47.04324466271845 H 0.0 **** 0.06
35264 H 136.21893794820522 127.42986267087736 48.76830471974097 H 0.0 **** 0.06
35265 H 135.56553946334958 125.90598634491681 48.119900328750305 H 0.0 **** 0.06
35266 C 83.6267394815572 26.060306362207314 48.90374716914934 C 0.0 **** -0.24
35267 H 82.92483139710933 26.02625820396664 48.07006445917145 H 0.0 **** 0.06
35268 H 83.0744695251056 26.040127257267486 49.84426343577911 H 0.0 **** 0.06
35269 H 84.21357660189284 26.977250171528638 48.846647944121386 H 0.0 **** 0.06
35270 H 84.29223551457261 25.198847088764452 48.854138881287966 H 0.0 **** 0.06
35271 C 129.02497201280138 69.21139911272462 113.2978548140303 C 0.0 **** -0.24
35272 H 128.92841456193523 68.68240168243949 112.34961462852081 H 0.0 **** 0.06
35273 H 129.2466493390138 70.26187647170771 113.10734606925035 H 0.0 **** 0.06
35274 H 129.8349008679138 68.76952846824389 113.87930360914868 H 0.0 **** 0.06
35275 H 128.09233548848877 69.13175478138558 113.85557957996767 H 0.0 **** 0.06
35276 C 36.59906496484141 123.70605470804526 55.91276670399134 C 0.0 **** -0.24
35277 H 35.852217418893424 123.6863841791245 56.706570133084824 H 0.0 **** 0.06
35278 H 37.462957965747464 124.28472419904494 56.24110586630644 H 0.0 **** 0.06
35279 H 36.17044541040254 124.16568196162552 55.02142547296097 H 0.0 **** 0.06
35280 H 36.91042203523992 122.6876613410376 55.68101733188911 H 0.0 **** 0.06
35281 C 71.12052522115005 31.504018451634124 83.81589001649337 C 0.0 **** -0.24
35282 H 70.80792670931169 32.50850413150235 83.53191340406181 H 0.0 **** 0.06
35283 H 72.19706472870425 31.40384947062924 83.672858595984 H 0.0 **** 0.06
35284 H 70.60194991589299 30.773739209530078 83.19450128570725 H 0.0 **** 0.06
35285 H 70.87521802669826 31.32960262556466 84.86336295056685 H 0.0 **** 0.06
35286 C 11.153345379127444 5.07870407023168 101.2635247197727 C 0.0 **** -0.24
35287 H 10.273240010772128 5.441331414406335 101.7954608580012 H 0.0 **** 0.06
35288 H 10.850146175906815 4.3428740252253135 100.51828014207271 H 0.0 **** 0.06
35289 H 11.841992240661838 4.61760521208484 101.97208625006388 H 0.0 **** 0.06
35290 H 11.648216485476212 5.914716270341643 100.76810337921137 H 0.0 **** 0.06
35291 C 0.6962863494792657 69.49596540217688 7.833932343174865 C 0.0 **** -0.24
35292 H 0.9322023470816987 70.24941262761794 7.082423206490148 H 0.0 **** 0.06
35293 H 1.4963979729083974 69.45831904984492 8.573509401858303 H 0.0 **** 0.06
35294 H 0.5979329919519785 68.52278080405004 7.3539288291915454 H 0.0 **** 0.06
35295 H -0.24206498238905283 69.7545074552112 8.325420780455147 H 0.0 **** 0.06
35296 C 71.65751683002418 26.809952661465886 7.410536600113716 C 0.0 **** -0.24
35297 H 72.18808359064235 26.0495260988329 7.9845831764046125 H 0.0 **** 0.06
35298 H 71.91796266190534 27.7984813592456 7.790075911731549 H 0.0 **** 0.06
35299 H 70.58312080694168 26.6538645176646 7.508300323178219 H 0.0 **** 0.06
35300 H 71.94150887184594 26.73634936781427 6.360637486390885 H 0.0 **** 0.06
35301 C 115.6359410410719 23.88151517874138 122.13422435173686 C 0.0 **** -0.24
35302 H 115.34371874608837 22.887228901933184 121.79559473375468 H 0.0 **** 0.06
35303 H 116.55657800749401 24.1797979617819 121.63130081584319 H 0.0 **** 0.06
35304 H 115.79950924859065 23.864036207851257 123.21163791142868 H 0.0 **** 0.06
35305 H 114.84478128623192 24.592992032229432 121.89891187133213 H 0.0 **** 0.06
35306 C 94.44879585279443 88.96364142402749 69.98804500516468 C 0.0 **** -0.24
35307 H 94.34195920941013 89.06949854925946 68.9091746737505 H 0.0 **** 0.06
35308 H 95.26491850142492 89.59749979750043 70.33706007370427 H 0.0 **** 0.06
35309 H 94.66633276952001 87.92420289492344 70.23136011533992 H 0.0 **** 0.06
35310 H 93.52103198463016 89.26463699720892 70.47616486887 H 0.0 **** 0.06
35311 C 104.46522240997456 66.37746005299472 85.24629198866717 C 0.0 **** -0.24
35312 H 105.07170290714907 65.96885449531351 86.05428205327411 H 0.0 **** 0.06
35313 H 103.5626088101476 66.82562180287142 85.66165182826735 H 0.0 **** 0.06
35314 H 104.19201877091274 65.57774888747628 84.55826738163981 H 0.0 **** 0.06
35315 H 105.03649735750656 67.13723661959499 84.71241598256884 H 0.0 **** 0.06
35316 C 53.94302314899316 47.32046919681244 129.00053012328215 C 0.0 **** -0.24
35317 H 53.83751915104544 46.700104286742885 129.89033478141815 H 0.0 **** 0.06
35318 H 53.546794267009105 48.31571334180114 129.2032931643749 H 0.0 **** 0.06
35319 H 53.388984799661785 46.86946175493637 128.17629779444835 H 0.0 **** 0.06
35320 H 54.99624267778182 47.39507098072272 128.73179566080546 H 0.0 **** 0.06
35321 C 56.675975121110994 69.12928361494055 56.258609501983585 C 0.0 **** -0.24
35322 H 55.83729240339352 68.97753182260107 55.57909882754723 H 0.0 **** 0.06
35323 H 57.48885674356163 68.45600909473103 55.98781637466945 H 0.0 **** 0.06
35324 H 56.35714213708236 68.92157383561289 57.28019222151943 H 0.0 **** 0.06
35325 H 57.01821110060027 70.16155195625227 56.18715564189955 H 0.0 **** 0.06
35326 C 81.17001556712779 67.79316447745629 51.03808853340135 C 0.0 **** -0.24
35327 H 81.99334223359914 68.49939360028043 50.9349689467052 H 0.0 **** 0.06
35328 H 80.56379018278888 68.06556532291157 51.902281593403856 H 0.0 **** 0.06
35329 H 81.56809171950054 66.78798268271663 51.17593260061882 H 0.0 **** 0.06
35330 H 80.55403270142794 67.81964887221886 50.13858211266641 H 0.0 **** 0.06
35331 C 109.79277666457745 59.2198481435388 49.46173258730771 C 0.0 **** -0.24
35332 H 109.30883471352422 59.94759042049634 48.81122480437108 H 0.0 **** 0.06
35333 H 109.26767135829982 59.18023082150012 50.417148748310225 H 0.0 **** 0.06
35334 H 110.82955377677638 59.5145211202784 49.628361465987 H 0.0 **** 0.06
35335 H 109.7662581950375 58.236709438953966 48.990840708043066 H 0.0 **** 0.06
35336 C 0.19864122241688165 19.865535116856194 124.0812632254976 C 0.0 **** -0.24
35337 H 0.7642129895315293 19.199776731398416 123.42887420139455 H 0.0 **** 0.06
35338 H 0.03602877153645068 19.380028356835204 125.04380021877068 H 0.0 **** 0.06
35339 H -0.7635090706581309 20.092755565099218 123.62181708117313 H 0.0 **** 0.06
35340 H 0.7575366041870666 20.789776416361278 124.22919243615478 H 0.0 **** 0.06
35341 C 80.48135680041007 96.88705920083487 98.38302199378518 C 0.0 **** -0.24
35342 H 80.03031140743701 97.08524221653383 99.3555833699462 H 0.0 **** 0.06
35343 H 81.49627644710179 96.51423724817437 98.52309694139103 H 0.0 **** 0.06
35344 H 80.50863960488176 97.80759204801615 97.80043812762051 H 0.0 **** 0.06
35345 H 79.88931938594887 96.13879292457733 97.85423334906142 H 0.0 **** 0.06
35346 C 119.36045477291606 51.213801368867266 67.1433303570048 C 0.0 **** -0.24
35347 H 118.41184498650136 51.16449662181574 67.67737862160408 H 0.0 **** 0.06
35348 H 120.16430243804177 51.4220433589021 67.85004692506271 H 0.0 **** 0.06
35349 H 119.31718649688139 52.0079138551029 66.397117697118 H 0.0 **** 0.06
35350 H 119.54827940303079 50.260332019897405 66.64966228008177 H 0.0 **** 0.06
35351 C 63.87274490726969 75.38371347077306 113.05322247548844 C 0.0 **** -0.24
35352 H 64.01428442473565 76.45406820718452 112.90314459453054 H 0.0 **** 0.06
35353 H 62.80880964620465 75.16904011079129 113.15485506436872 H 0.0 **** 0.06
35354 H 64.39522790391214 75.0725621934599 113.95795971596834 H 0.0 **** 0.06
35355 H 64.27362860751191 74.84115457423061 112.19734506521613 H 0.0 **** 0.06
35356 C 113.22276361251397 81.75116972539864 28.380166915563933 C 0.0 **** -0.24
35357 H 112.15118997030916 81.92145092921339 28.488344283469132 H 0.0 **** 0.06
35358 H 113.76393811810993 82.4014494853003 29.06810767727268 H 0.0 **** 0.06
35359 H 113.52432522867437 81.97236610232044 27.35627003484211 H 0.0 **** 0.06
35360 H 113.45056724929236 80.7104333860253 28.609917700914238 H 0.0 **** 0.06
35361 C 66.57416257639703 52.48194267445541 33.171099129687406 C 0.0 **** -0.24
35362 H 65.5204386011617 52.468265012463235 33.44880175120164 H 0.0 **** 0.06
35363 H 66.73445516397537 53.22556475487005 32.389838230239405 H 0.0 **** 0.06
35364 H 66.86605941181757 51.498381601755 32.80195423823258 H 0.0 **** 0.06
35365 H 67.17657905721235 52.735972414852085 34.043575124722054 H 0.0 **** 0.06
35366 C 20.94876202425371 28.408352897688324 7.398435468184175 C 0.0 **** -0.24
35367 H 21.456897784297496 27.753980010448004 6.690270073333664 H 0.0 **** 0.06
35368 H 21.108182440029054 28.039561332426196 8.412322559484068 H 0.0 **** 0.06
35369 H 19.881550085993865 28.421341448016456 7.179862867483507 H 0.0 **** 0.06
35370 H 21.350325857575513 29.417621247882927 7.312018387906022 H 0.0 **** 0.06
35371 C 58.829716988132645 23.141470385773147 132.7424146496857 C 0.0 **** -0.24
35372 H 59.64756398697739 23.009343162213355 133.45084795640236 H 0.0 **** 0.06
35373 H 59.23582054897848 23.388502529435414 131.76117303259014 H 0.0 **** 0.06
35374 H 58.18256774360559 23.950108227622763 133.08151896804117 H 0.0 **** 0.06
35375 H 58.25422570413532 22.21870830904868 132.67693991386756 H 0.0 **** 0.06
35376 C 106.3644488985827 48.07976667697267 72.21367169558016 C 0.0 **** -0.24
35377 H 105.36940110912275 48.46849086436754 71.99882888937233 H 0.0 **** 0.06
35378 H 107.10277899711393 48.62113081419483 71.6209266697789 H 0.0 **** 0.06
35379 H 106.40243828298564 47.019702172069515 71.96158214203382 H 0.0 **** 0.06
35380 H 106.58432635337452 48.2084841994876 73.27365791428937 H 0.0 **** 0.06
35381 C 131.81019782585048 15.3616975106628 127.58662705577467 C 0.0 **** -0.24
35382 H 131.84713236103957 15.246604661735667 128.67046218807462 H 0.0 **** 0.06
35383 H 131.1848105336915 14.577172392152697 127.16020689919021 H 0.0 **** 0.06
35384 H 132.81825375694746 15.284675465414892 127.1794294407571 H 0.0 **** 0.06
35385 H 131.39159021736884 16.33648517194618 127.3383012590069 H 0.0 **** 0.06
35386 C 26.300650158109995 20.97674900493905 5.744614402488139 C 0.0 **** -0.24
35387 H 25.824405194003894 20.376398188388862 6.52033969777878 H 0.0 **** 0.06
35388 H 27.116084134633184 20.40796731865646 5.296379036396473 H 0.0 **** 0.06
35389 H 26.69615711190282 21.892071304844535 6.185027167238445 H 0.0 **** 0.06
35390 H 25.567872413259252 21.22814635497059 4.978582315452371 H 0.0 **** 0.06
35391 C 9.964546533219504 101.9757249258751 130.45112778402708 C 0.0 **** -0.24
35392 H 10.090883528571567 100.93853778335847 130.1400106423633 H 0.0 **** 0.06
35393 H 8.926893732761158 102.14319274756977 130.74169327918887 H 0.0 **** 0.06
35394 H 10.221599263045022 102.63677403423317 129.6241048203012 H 0.0 **** 0.06
35395 H 10.617620233174677 102.1822630276483 131.2989018144565 H 0.0 **** 0.06
35396 C 47.26237857115075 3.0193006786794 109.0722818550961 C 0.0 **** -0.24
35397 H 48.29273020434664 3.3465661449531297 108.93399636523488 H 0.0 **** 0.06
35398 H 46.98397233151735 3.1304684942908807 110.11999399095845 H 0.0 **** 0.06
35399 H 47.17141681976403 1.9731902793966185 108.78030575432471 H 0.0 **** 0.06
35400 H 46.60232191845182 3.627419123239804 108.45385867759386 H 0.0 **** 0.06
35401 C 49.378030226105466 36.74739214850075 52.665486286665555 C 0.0 **** -0.24
35402 H 50.37946535354456 36.7054158355501 52.23577034377729 H 0.0 **** 0.06
35403 H 48.69342064813401 36.16584961469093 52.049310177706104 H 0.0 **** 0.06
35404 H 49.042800429183444 37.78476169730118 52.70250718540791 H 0.0 **** 0.06
35405 H 49.39858587813137 36.33537550296592 53.674267629540736 H 0.0 **** 0.06
35406 C 102.39437946110324 28.99956551912385 38.16680568422633 C 0.0 **** -0.24
35407 H 102.60063507402597 28.03917240702029 37.69451684539182 H 0.0 **** 0.06
35408 H 102.17025413691084 28.84521403387106 39.222590486808514 H 0.0 **** 0.06
35409 H 101.53953818943063 29.4692078599181 37.678486514773816 H 0.0 **** 0.06
35410 H 103.26680223276301 29.645538282793922 38.07122989371797 H 0.0 **** 0.06
35411 C 23.425134162678447 118.09046639477276 30.419229686662277 C 0.0 **** -0.24
35412 H 23.038537231995853 118.304312565705 31.414866475366324 H 0.0 **** 0.06
35413 H 24.457813291634594 118.43238291762464 30.349753269526502 H 0.0 **** 0.06
35414 H 22.820232129325838 118.60912197215254 29.67512888245315 H 0.0 **** 0.06
35415 H 23.384294497289005 117.01670158743059 30.236494033916756 H 0.0 **** 0.06
35416 C 21.12736716720741 65.6945078190808 90.31819106767249 C 0.0 **** -0.24
35417 H 21.21139430416119 65.3471653153216 91.34749988655176 H 0.0 **** 0.06
35418 H 20.322782535068086 65.15511166226815 89.8168413996814 H 0.0 **** 0.06
35419 H 22.066381235961614 65.5140748542239 89.79574916068906 H 0.0 **** 0.06
35420 H 20.90786424448656 66.76241693417447 90.31150703266184 H 0.0 **** 0.06
35421 C 83.19410742221055 50.18902836528676 125.66163960445259 C 0.0 **** -0.24
35422 H 83.14053201201722 51.27775834837891 125.67358834823071 H 0.0 **** 0.06
35423 H 82.90536816763444 49.800558711505545 126.63846970744999 H 0.0 **** 0.06
35424 H 84.21331664871644 49.87791004665661 125.43308328058761 H 0.0 **** 0.06
35425 H 82.51593514324577 49.80045052463288 124.90119517264543 H 0.0 **** 0.06
35426 C 11.302736764818142 84.77215402417444 34.94304353598446 C 0.0 **** -0.24
35427 H 12.384481832004195 84.63684702597182 34.95881429202461 H 0.0 **** 0.06
35428 H 11.062530684776767 85.71770123828577 34.455468279162844 H 0.0 **** 0.06
35429 H 10.923926780352932 84.78220666097046 35.96498042008645 H 0.0 **** 0.06
35430 H 10.84170695204438 83.95153948346018 34.39281414994139 H 0.0 **** 0.06
35431 C 18.81404133469283 68.89852130358165 84.94643192777653 C 0.0 **** -0.24
35432 H 18.78801915831187 69.33886664790865 85.94232339080554 H 0.0 **** 0.06
35433 H 19.04727120688304 69.67087919098142 84.21342293159444 H 0.0 **** 0.06
35434 H 17.8421472717273 68.46093360768418 84.71718964484211 H 0.0 **** 0.06
35435 H 19.579183479168762 68.12201543368667 84.91142813702692 H 0.0 **** 0.06
35436 C 4.873004851644168 132.24689631822224 128.30045927722475 C 0.0 **** -0.24
35437 H 4.0946396886933485 132.92759360014702 128.64327246448204 H 0.0 **** 0.06
35438 H 4.6804075049926155 131.2474634313609 128.69249154662575 H 0.0 **** 0.06
35439 H 5.842649597764478 132.59571098226 128.65510478704246 H 0.0 **** 0.06
35440 H 4.875233660791594 132.21574406163543 127.21083290157145 H 0.0 **** 0.06
35441 C 117.82253866314957 104.00908192421639 30.72729400792781 C 0.0 **** -0.24
35442 H 117.73221659618 105.09416676075875 30.76829210515308 H 0.0 **** 0.06
35443 H 118.5430270961808 103.73371958967476 29.956652653271078 H 0.0 **** 0.06
35444 H 116.85227139395678 103.57324334904419 30.489867791997625 H 0.0 **** 0.06
35445 H 118.16201709136831 103.63524666105359 31.69309452521307 H 0.0 **** 0.06
35446 C 117.78331940376046 98.71354409613976 3.122007294976413 C 0.0 **** -0.24
35447 H 118.04560120737301 98.4807242352519 2.089637564061377 H 0.0 **** 0.06
35448 H 118.01958395721357 99.75609215256821 3.3312980013959077 H 0.0 **** 0.06
35449 H 118.35014650525841 98.07016880882487 3.7948663679742367 H 0.0 **** 0.06
35450 H 116.71653391955428 98.5443677050166 3.2720412589047783 H 0.0 **** 0.06
35451 C 57.440132678299335 44.11272350318535 93.45786083144185 C 0.0 **** -0.24
35452 H 56.84331984656154 44.47629934906291 94.294434866351 H 0.0 **** 0.06
35453 H 58.085917733432154 43.30249360686088 93.79864420980167 H 0.0 **** 0.06
35454 H 58.052052391846644 44.925898854763204 93.06770680396795 H 0.0 **** 0.06
35455 H 56.77988994226132 43.74550514910135 92.67291419850108 H 0.0 **** 0.06
35456 C 100.7056423370106 46.62480755044358 9.584223351050579 C 0.0 **** -0.24
35457 H 100.83446840134687 46.04377839362046 10.497364097026036 H 0.0 **** 0.06
35458 H 99.6456804673644 46.67983752406117 9.33498726844983 H 0.0 **** 0.06
35459 H 101.24590505754315 46.143627794913996 8.767937633046277 H 0.0 **** 0.06
35460 H 101.09770145063914 47.63033705170545 9.735670102025814 H 0.0 **** 0.06
35461 C 113.32514807415134 99.38630968433101 50.616302839001165 C 0.0 **** -0.24
35462 H 113.23139488299284 98.76702615231346 51.50846163359057 H 0.0 **** 0.06
35463 H 112.35207672307092 99.80508843566362 50.36162162884142 H 0.0 **** 0.06
35464 H 113.68748279016356 98.77632859387514 49.7878936675918 H 0.0 **** 0.06
35465 H 114.03114581151408 100.19412083487933 50.807991087875806 H 0.0 **** 0.06
35466 C 40.601029895385125 50.12123479369548 79.32314810496209 C 0.0 **** -0.24
35467 H 41.15105820953028 50.978706769124315 78.93631778616543 H 0.0 **** 0.06
35468 H 40.34786612583994 50.29383498571154 80.36873038104395 H 0.0 **** 0.06
35469 H 41.21979845636217 49.22723567505986 79.24058816431372 H 0.0 **** 0.06
35470 H 39.68749127554925 49.98538301676892 78.74506808964759 H 0.0 **** 0.06
35471 C 45.23692759156353 25.901397183344983 84.5124373733421 C 0.0 **** -0.24
35472 H 44.48057667034146 25.116355128174916 84.4905661266805 H 0.0 **** 0.06
35473 H 45.049054182048394 26.6087084635503 83.70427376052169 H 0.0 **** 0.06
35474 H 46.22482568376719 25.457696275639023 84.38576866848189 H 0.0 **** 0.06
35475 H 45.19272871308141 26.42152999201548 85.46894788032415 H 0.0 **** 0.06
35476 C 102.03550352510808 96.53581959641184 110.65597717596634 C 0.0 **** -0.24
35477 H 101.84098000139397 97.2134375251154 109.8244492936303 H 0.0 **** 0.06
35478 H 102.27217387398503 97.11530122185388 111.54868389320231 H 0.0 **** 0.06
35479 H 102.8770569851572 95.88988736641876 110.4079603686449 H 0.0 **** 0.06
35480 H 101.15132792827569 95.92645979880311 110.84158748459512 H 0.0 **** 0.06
35481 C 102.26997212132525 80.48245266702578 98.61664263689521 C 0.0 **** -0.24
35482 H 101.65862320581431 80.90805815391349 97.82042560022329 H 0.0 **** 0.06
35483 H 103.30425533700992 80.40859520564045 98.28069566950875 H 0.0 **** 0.06
35484 H 101.89748166086952 79.48985491239375 98.86914531056509 H 0.0 **** 0.06
35485 H 102.21745857168276 81.12460606089446 99.49617344082931 H 0.0 **** 0.06
35486 C 19.511348626418254 12.196230914585477 103.40549601700496 C 0.0 **** -0.24
35487 H 19.82850846733274 13.096234705262397 102.87868782142559 H 0.0 **** 0.06
35488 H 20.370159368324053 11.744910650071361 103.90240867866365 H 0.0 **** 0.06
35489 H 19.088584806975234 11.48772978646338 102.69288743907022 H 0.0 **** 0.06
35490 H 18.75799808418438 12.457999107330128 104.14947484961613 H 0.0 **** 0.06
35491 C 82.37990329484194 78.39954554776787 69.93497226009221 C 0.0 **** -0.24
35492 H 83.06019256889122 79.2139791784319 70.18766280649855 H 0.0 **** 0.06
35493 H 82.69976708717164 77.48902968703321 70.44080231304926 H 0.0 **** 0.06
35494 H 82.39108357936226 78.23924669715318 68.85602257296703 H 0.0 **** 0.06
35495 H 81.3696032421797 78.65827562975265 70.25330015831925 H 0.0 **** 0.06
35496 C 21.581550809261046 75.35813783924283 89.6559811716791 C 0.0 **** -0.24
35497 H 20.701542424890647 75.42246372067149 90.2959002945305 H 0.0 **** 0.06
35498 H 21.389989178956725 74.65599099576298 88.84357850793107 H 0.0 **** 0.06
35499 H 22.43320115467099 75.01225681058685 90.24229771855664 H 0.0 **** 0.06
35500 H 21.80161390650924 76.34183195190181 89.24074123320369 H 0.0 **** 0.06
35501 C 102.7229548243298 120.3155207608836 28.27398450857953 C 0.0 **** -0.24
35502 H 101.97329932977834 120.56093122507974 27.52197760178658 H 0.0 **** 0.06
35503 H 103.1334037043703 119.32669615957411 28.0674639933518 H 0.0 **** 0.06
35504 H 102.26053173432126 120.3178556474432 29.260789693940815 H 0.0 **** 0.06
35505 H 103.52255529916522 121.05531043716701 28.24523823358532 H 0.0 **** 0.06
35506 C 105.40102340510327 77.49948935918513 12.85161810212594 C 0.0 **** -0.24
35507 H 104.81849999428565 76.68530032855398 12.420790122067388 H 0.0 **** 0.06
35508 H 104.76086219205064 78.37105757627828 12.988860712173505 H 0.0 **** 0.06
35509 H 106.2213936979565 77.75407212016069 12.179630511611947 H 0.0 **** 0.06
35510 H 105.80331533774205 77.18801410439642 13.815008664815707 H 0.0 **** 0.06
35511 C 113.68179345819391 132.46111033533884 34.859985546022244 C 0.0 **** -0.24
35512 H 113.39032647057155 132.3606638424621 35.905574647034996 H 0.0 **** 0.06
35513 H 114.76491363076235 132.37159979016843 34.77525286645562 H 0.0 **** 0.06
35514 H 113.36719892889687 133.43601247031353 34.48783482141255 H 0.0 **** 0.06
35515 H 113.2045316247274 131.6766928520579 34.27291706684224 H 0.0 **** 0.06
35516 C 22.164695196239478 116.92862691152018 108.17376048544796 C 0.0 **** -0.24
35517 H 21.113504171860853 116.99864902355614 107.89416543031163 H 0.0 **** 0.06
35518 H 22.530600131296936 117.91464026068428 108.46221736587583 H 0.0 **** 0.06
35519 H 22.742618731125447 116.56030552019615 107.32525363650518 H 0.0 **** 0.06
35520 H 22.27205775067472 116.24091284164413 109.01340550909924 H 0.0 **** 0.06
35521 C 8.613300414350107 128.64455913423944 10.669132851860127 C 0.0 **** -0.24
35522 H 8.608741067218347 129.685716389505 10.345696816563532 H 0.0 **** 0.06
35523 H 8.957198002609005 128.58732352653038 11.701624775162827 H 0.0 **** 0.06
35524 H 9.283087752835172 128.0686085569347 10.029483745211337 H 0.0 **** 0.06
35525 H 7.604550202700608 128.23807408993756 10.598097863666283 H 0.0 **** 0.06
35526 C 130.34926476369645 21.81653625488849 26.562036881460074 C 0.0 **** -0.24
35527 H 131.14232710395044 21.945319542146876 25.825355093103184 H 0.0 **** 0.06
35528 H 130.55423004783722 20.932279114604853 27.166387485883433 H 0.0 **** 0.06
35529 H 129.3948751740681 21.69411634593149 26.049924648574944 H 0.0 **** 0.06
35530 H 130.30685996585476 22.695114713017503 27.206582330464244 H 0.0 **** 0.06
35531 C 0.18466802776020685 88.71927721776655 127.74084828965661 C 0.0 **** -0.24
35532 H 0.22079591263862497 89.1432278444642 126.73775823217056 H 0.0 **** 0.06
35533 H 1.140393183699807 88.24664793612203 127.96955573670596 H 0.0 **** 0.06
35534 H -0.6107455782202003 87.975593199815 127.79230071740801 H 0.0 **** 0.06
35535 H -0.010891722743270549 89.51161348303225 128.46267142636165 H 0.0 **** 0.06
35536 C 112.00209750211775 8.865632767866714 46.519007809555575 C 0.0 **** -0.24
35537 H 111.34651750454614 8.88511406990773 45.647843385713145 H 0.0 **** 0.06
35538 H 112.41901682366708 7.864696595655857 46.63686021298942 H 0.0 **** 0.06
35539 H 111.43013752703578 9.128682471535285 47.40886437420939 H 0.0 **** 0.06
35540 H 112.8106133081547 9.583385705488496 46.380195074799175 H 0.0 **** 0.06
35541 C 16.72941248351009 9.968658927132196 16.464889994899806 C 0.0 **** -0.24
35542 H 16.077311567125975 10.636600470455221 15.901615126610295 H 0.0 **** 0.06
35543 H 17.359381691083826 9.407500702328377 15.7738383599592 H 0.0 **** 0.06
35544 H 16.123633462573423 9.276341850273326 17.048271375587092 H 0.0 **** 0.06
35545 H 17.35814018216314 10.555128907678778 17.13515973423273 H 0.0 **** 0.06
35546 C 30.616443972105515 14.89582599173633 124.70644774502898 C 0.0 **** -0.24
35547 H 30.89869340502662 14.878222440783588 123.65315837630175 H 0.0 **** 0.06
35548 H 31.460813266392336 14.566032860584812 125.3131809057042 H 0.0 **** 0.06
35549 H 29.77032682662184 14.228991720088914 124.86642837774042 H 0.0 **** 0.06
35550 H 30.339795776472386 15.910977646521701 124.9912054628881 H 0.0 **** 0.06
35551 C 98.68552085034717 60.92922678068544 96.76542478267363 C 0.0 **** -0.24
35552 H 98.96529434220943 61.01709592568136 97.81458768955564 H 0.0 **** 0.06
35553 H 98.29923314497343 61.88525213352159 96.4100848628804 H 0.0 **** 0.06
35554 H 97.91672816217906 60.16391536352876 96.65766434934017 H 0.0 **** 0.06
35555 H 99.5608211851817 60.649936814006765 96.17813733637288 H 0.0 **** 0.06
35556 C 111.31472908159515 74.53160256653938 52.62758394470194 C 0.0 **** -0.24
35557 H 112.30607108820504 74.1432839519432 52.85725905839496 H 0.0 **** 0.06
35558 H 110.60682119413764 74.19147119145812 53.384523314903674 H 0.0 **** 0.06
35559 H 111.00184994158337 74.17075391677874 51.64793352517832 H 0.0 **** 0.06
35560 H 111.34436401295056 75.6215979032354 52.621835873598926 H 0.0 **** 0.06
35561 C 76.02608718022216 127.18368514746642 12.189591822504092 C 0.0 **** -0.24
35562 H 77.081921461093 126.91976745069763 12.123459263144483 H 0.0 **** 0.06
35563 H 75.50590962001647 126.82672238033176 11.299664838157096 H 0.0 **** 0.06
35564 H 75.92677017362442 128.2669172140917 12.258210168960822 H 0.0 **** 0.06
35565 H 75.59066881825655 126.7220538165235 13.074880672907618 H 0.0 **** 0.06
35566 C 13.112629587446094 60.31066663152555 117.77468192388588 C 0.0 **** -0.24
35567 H 13.623151019182899 59.526094873907184 118.33397355440107 H 0.0 **** 0.06
35568 H 12.81234123458296 61.105434306807155 118.45729110530334 H 0.0 **** 0.06
35569 H 12.230104558325365 59.89461323186235 117.2884862695177 H 0.0 **** 0.06
35570 H 13.787031684641079 60.71430628680261 117.02025310259953 H 0.0 **** 0.06
35571 C 108.31466914903508 98.7717541926362 83.01410509483406 C 0.0 **** -0.24
35572 H 109.39397469879027 98.63347563873907 82.95960204733859 H 0.0 **** 0.06
35573 H 108.03801795033118 99.07266818292524 84.02476773196548 H 0.0 **** 0.06
35574 H 107.8155039920791 97.83614132850417 82.76371193168052 H 0.0 **** 0.06
35575 H 108.0121756683359 99.54681219207504 82.30916332241162 H 0.0 **** 0.06
35576 C 18.91678824967139 131.21738809168343 123.40778799157954 C 0.0 **** -0.24
35577 H 18.234534958917394 132.01166112263311 123.71356559359813 H 0.0 **** 0.06
35578 H 19.698513731599725 131.63383266494773 122.7727633975116 H 0.0 **** 0.06
35579 H 18.363749030203046 130.4583238707294 122.85452025024287 H 0.0 **** 0.06
35580 H 19.36769777109312 130.76655953156995 124.29210767200408 H 0.0 **** 0.06
35581 C 116.08158637325675 32.7776954426798 3.2865679866607707 C 0.0 **** -0.24
35582 H 116.89311202629995 33.3854703499444 2.886102196267416 H 0.0 **** 0.06
35583 H 116.14659102397817 31.76929819732183 2.8752462712991473 H 0.0 **** 0.06
35584 H 115.12479397946112 33.22099243604433 3.011816967453683 H 0.0 **** 0.06
35585 H 116.16393501822176 32.73291217378028 4.372658790514322 H 0.0 **** 0.06
35586 C 46.80113764101341 19.052684611511637 101.44478676866805 C 0.0 **** -0.24
35587 H 45.84531036955157 18.591444632652326 101.69181295541364 H 0.0 **** 0.06
35588 H 46.76149487535045 20.11713290459869 101.67541055479455 H 0.0 **** 0.06
35589 H 47.00596102366181 18.917809056952592 100.38292942928177 H 0.0 **** 0.06
35590 H 47.59255187625807 18.582520228510276 102.03002185472766 H 0.0 **** 0.06
35591 C 9.850620317819164 71.78839165551284 25.23335995900524 C 0.0 **** -0.24
35592 H 8.939739001784233 72.38369304881627 25.298663501735746 H 0.0 **** 0.06
35593 H 9.838618577752186 71.20469938025906 24.312510687728896 H 0.0 **** 0.06
35594 H 9.905564628357126 71.11665231665785 26.0896358581738 H 0.0 **** 0.06
35595 H 10.717458388433101 72.45001133193648 25.233882891869435 H 0.0 **** 0.06
35596 C 50.72214252241923 35.01973473807058 120.11707153171628 C 0.0 **** -0.24
35597 H 50.06008868701673 34.28819688591449 119.65490586506695 H 0.0 **** 0.06
35598 H 50.30621904862255 36.01868849557496 119.9872751537351 H 0.0 **** 0.06
35599 H 51.704501532097936 34.970237852012986 119.64663564018107 H 0.0 **** 0.06
35600 H 50.81681804438904 34.801249831847116 121.18114013477148 H 0.0 **** 0.06
35601 C 56.97193365371818 76.48904749518852 121.24554163668263 C 0.0 **** -0.24
35602 H 56.087037809215275 76.14268244357555 120.712165006774 H 0.0 **** 0.06
35603 H 57.68954328245766 76.89574332949496 120.53307762017985 H 0.0 **** 0.06
35604 H 57.42363891681212 75.65383571372624 121.78014585059206 H 0.0 **** 0.06
35605 H 56.686217273423736 77.26448358354523 121.95668375363609 H 0.0 **** 0.06
35606 C 77.48479165015125 102.58146161992312 95.09995591416033 C 0.0 **** -0.24
35607 H 77.38333114307696 101.49638323590148 95.11871024796532 H 0.0 **** 0.06
35608 H 77.37815628771119 102.97459943936065 96.11122523488457 H 0.0 **** 0.06
35609 H 76.71183068491882 103.00769561184336 94.46089960521476 H 0.0 **** 0.06
35610 H 78.46713744893988 102.84740250659752 94.70845587604197 H 0.0 **** 0.06
35611 C 26.012270841415244 72.264483543795 19.22967089219094 C 0.0 **** -0.24
35612 H 25.272459434613253 71.55445748158648 18.860531192929898 H 0.0 **** 0.06
35613 H 26.2959974898718 71.9971242288545 20.247245566021093 H 0.0 **** 0.06
35614 H 25.58742402943203 73.2687972668826 19.221470583866903 H 0.0 **** 0.06
35615 H 26.892983746189266 72.23830306867293 18.58711390971081 H 0.0 **** 0.06
35616 C 75.39392477418568 76.01544521693 38.7625977160605 C 0.0 **** -0.24
35617 H 75.53633330307821 75.34132408477137 39.60736548503215 H 0.0 **** 0.06
35618 H 75.19751184127642 75.43239879014607 37.86286837749256 H 0.0 **** 0.06
35619 H 76.29394422593134 76.61348791741167 38.62009518329535 H 0.0 **** 0.06
35620 H 74.54803300506205 76.67367133118444 38.96292144748095 H 0.0 **** 0.06
35621 C 22.53864553085922 2.926449708259156 74.13323798056086 C 0.0 **** -0.24
35622 H 22.585516463045963 1.8426362600738457 74.23933504564403 H 0.0 **** 0.06
35623 H 22.77992054165854 3.3961676811358643 75.0870201766983 H 0.0 **** 0.06
35624 H 21.53416339025045 3.2182684347451413 73.82724205445649 H 0.0 **** 0.06
35625 H 23.256358874211195 3.2483702676570374 73.37736043461979 H 0.0 **** 0.06
35626 C 120.13778577541213 110.48407737934178 94.05916141723691 C 0.0 **** -0.24
35627 H 120.17382406906445 109.70761596719888 94.82331452987574 H 0.0 **** 0.06
35628 H 121.0682014402358 110.47872262957816 93.4917585109211 H 0.0 **** 0.06
35629 H 120.0058610268974 111.45540412303217 94.53504086025049 H 0.0 **** 0.06
35630 H 119.30057705586685 110.29256185686441 93.38742675246124 H 0.0 **** 0.06
35631 C 121.57279049296642 106.90112015720064 15.094251395474302 C 0.0 **** -0.24
35632 H 121.29501621925385 106.5912861489835 16.101570803743456 H 0.0 **** 0.06
35633 H 121.94871479347171 107.92421595672704 15.119648133820391 H 0.0 **** 0.06
35634 H 120.69987266730709 106.85069064211046 14.44380895189807 H 0.0 **** 0.06
35635 H 122.34951309991084 106.23751222866997 14.71121787627137 H 0.0 **** 0.06
35636 C 112.8121070306062 64.35916559164738 71.77521274641666 C 0.0 **** -0.24
35637 H 113.20979793354596 65.09927639830761 72.46978240661078 H 0.0 **** 0.06
35638 H 113.39744061479561 63.44195854777199 71.8474411481472 H 0.0 **** 0.06
35639 H 112.86891667177585 64.74762484158532 70.75887565186433 H 0.0 **** 0.06
35640 H 111.77227349590245 64.14797995697593 72.02615485757633 H 0.0 **** 0.06
35641 C 70.4164324055067 46.8528114914954 111.19653086440545 C 0.0 **** -0.24
35642 H 69.44502889391407 47.245178819219475 110.89752065084107 H 0.0 **** 0.06
35643 H 70.27504031499342 46.016561825968935 111.88221001565833 H 0.0 **** 0.06
35644 H 70.98850399353944 47.637265295597444 111.69194219608647 H 0.0 **** 0.06
35645 H 70.95702575456235 46.511760066053 110.31358306277642 H 0.0 **** 0.06
35646 C 14.093054721149315 109.82207658022185 36.597683716288614 C 0.0 **** -0.24
35647 H 13.09595513009964 110.11369090537445 36.92861661486565 H 0.0 **** 0.06
35648 H 14.668724349468192 110.71499966024697 36.352445161731 H 0.0 **** 0.06
35649 H 14.011706757359406 109.18762295061332 35.715920088394064 H 0.0 **** 0.06
35650 H 14.59388199436006 109.27413014641364 37.39590412181716 H 0.0 **** 0.06
35651 C 77.73206888870072 25.639460555490324 71.73562617429809 C 0.0 **** -0.24
35652 H 77.45702392770448 25.706452810272943 70.68241991323691 H 0.0 **** 0.06
35653 H 78.16322171664056 24.658663472851707 71.93625364926169 H 0.0 **** 0.06
35654 H 76.84464842138411 25.780857236319683 72.35179734508313 H 0.0 **** 0.06
35655 H 78.46451175243115 26.412399626989995 71.96865130140662 H 0.0 **** 0.06
35656 C 81.84689362390725 109.48770578214646 128.93308625169163 C 0.0 **** -0.24
35657 H 81.26807126636652 110.41122601724305 128.93082624318782 H 0.0 **** 0.06
35658 H 82.89518455016673 109.7160213550572 129.1283047026222 H 0.0 **** 0.06
35659 H 81.75548244649369 108.99949342491965 127.96281734361617 H 0.0 **** 0.06
35660 H 81.46828583085147 108.82487823606618 129.71064898697432 H 0.0 **** 0.06
35661 C 28.88801541285371 18.377538174890475 72.7592336617736 C 0.0 **** -0.24
35662 H 28.472197048342608 17.38208597799104 72.91688866573813 H 0.0 **** 0.06
35663 H 29.00505191395189 18.878561815779904 73.7204442816782 H 0.0 **** 0.06
35664 H 28.21422478867553 18.95577929616799 72.12783330363533 H 0.0 **** 0.06
35665 H 29.85914795496388 18.292878790967123 72.27325489760966 H 0.0 **** 0.06
35666 C 8.695636122546176 58.77802006982125 6.344999875308133 C 0.0 **** -0.24
35667 H 9.734191400903104 58.486081695798475 6.500257639783342 H 0.0 **** 0.06
35668 H 8.619018104823365 59.86533828613311 6.36093257075612 H 0.0 **** 0.06
35669 H 8.077346772376643 58.357708063905136 7.138738622616131 H 0.0 **** 0.06
35670 H 8.352845282667747 58.40293518121753 5.380585629802113 H 0.0 **** 0.06
35671 C 0.5396274437414377 120.55883291250377 37.263718305547286 C 0.0 **** -0.24
35672 H 0.48285753564283596 120.52019423671895 38.352136125513596 H 0.0 **** 0.06
35673 H 0.9038010220516526 121.53923337934097 36.95381078332326 H 0.0 **** 0.06
35674 H -0.4501751548788775 120.3892396648061 36.8416733577111 H 0.0 **** 0.06
35675 H 1.2244372635339005 119.78881456010951 36.90800448167647 H 0.0 **** 0.06
35676 C 104.19986829001806 88.17061169686501 37.77067614507355 C 0.0 **** -0.24
35677 H 103.21979138266897 87.97051663445862 37.33900470850538 H 0.0 **** 0.06
35678 H 104.85095157434125 88.60178135930181 37.00947157726006 H 0.0 **** 0.06
35679 H 104.6337910240473 87.23934799890903 38.13516628366029 H 0.0 **** 0.06
35680 H 104.09609870910506 88.87181299939878 38.598267611195816 H 0.0 **** 0.06
35681 C 114.03630773770774 41.508848966611566 22.983575650286326 C 0.0 **** -0.24
35682 H 113.50559720357151 41.027786359084075 22.161467265019354 H 0.0 **** 0.06
35683 H 115.05173705069492 41.74988349553868 22.668103374918672 H 0.0 **** 0.06
35684 H 114.07157409283948 40.832288025249 23.8376263815548 H 0.0 **** 0.06
35685 H 113.51487294415847 42.42377185508468 23.265075084609776 H 0.0 **** 0.06
35686 C 14.587060203320874 116.18754973521476 32.32637972486654 C 0.0 **** -0.24
35687 H 13.825340667380544 116.80313650578955 32.80445955164488 H 0.0 **** 0.06
35688 H 14.2465216552784 115.15258122858347 32.28958615302487 H 0.0 **** 0.06
35689 H 15.512711887372433 116.24551430488043 32.90006098295047 H 0.0 **** 0.06
35690 H 14.76417989569515 116.54971381002952 31.31427212019974 H 0.0 **** 0.06
35691 C 43.00819951266925 93.82057906859575 117.15631114826746 C 0.0 **** -0.24
35692 H 44.05509115083595 93.64984962371477 116.9070414596303 H 0.0 **** 0.06
35693 H 42.40376578308968 93.00160337204483 116.76746323712626 H 0.0 **** 0.06
35694 H 42.67778921616673 94.76019661598482 116.71249135899217 H 0.0 **** 0.06
35695 H 42.89723768515876 93.87249780799445 118.23946025371666 H 0.0 **** 0.06
35696 C 12.438089013686408 13.751763890229128 37.498402678034424 C 0.0 **** -0.24
35697 H 13.485556033978128 13.463941591533384 37.59547631077899 H 0.0 **** 0.06
35698 H 12.097112146994903 13.544437629923621 36.48312746928766 H 0.0 **** 0.06
35699 H 12.333287881319734 14.815851314269224 37.70741388620541 H 0.0 **** 0.06
35700 H 11.83766367949977 13.181169648043166 38.20677876502885 H 0.0 **** 0.06
35701 C 27.560372554394583 23.042231121029715 84.73659883697209 C 0.0 **** -0.24
35702 H 26.861949075279185 23.241589464464624 83.92405348985515 H 0.0 **** 0.06
35703 H 27.008123828346342 22.921780424117003 85.66833754168988 H 0.0 **** 0.06
35704 H 28.255424371295007 23.87748036257932 84.8313501585925 H 0.0 **** 0.06
35705 H 28.11645725044591 22.13030716924274 84.52176046210617 H 0.0 **** 0.06
35706 C 51.03765271750558 79.054719778432 30.4182059315888 C 0.0 **** -0.24
35707 H 52.043070390577384 79.47588226547147 30.39959016976433 H 0.0 **** 0.06
35708 H 51.02910676082142 78.16440478277967 31.046479126357447 H 0.0 **** 0.06
35709 H 50.73742550727957 78.78781537679036 29.404573474548904 H 0.0 **** 0.06
35710 H 50.342505761723814 79.79139577261658 30.820640076169525 H 0.0 **** 0.06
35711 C 31.44640340818151 26.373542560664724 105.25480416538278 C 0.0 **** -0.24
35712 H 32.06798839610735 27.087540664967634 105.79499289658574 H 0.0 **** 0.06
35713 H 31.979390502454038 25.426063566470027 105.16228671317424 H 0.0 **** 0.06
35714 H 31.224951076713467 26.763881225019134 104.26134220519415 H 0.0 **** 0.06
35715 H 30.516162604705556 26.215633122803176 105.79932749634366 H 0.0 **** 0.06
35716 C 98.68470894937843 34.14566471331465 18.570013647448945 C 0.0 **** -0.24
35717 H 99.76945715331021 34.24126334767529 18.527243612162188 H 0.0 **** 0.06
35718 H 98.35634676327692 34.1965923329841 19.607764908082835 H 0.0 **** 0.06
35719 H 98.38676421276483 33.18876099554171 18.14028894851389 H 0.0 **** 0.06
35720 H 98.22625742799096 34.956576877624705 18.003447891058777 H 0.0 **** 0.06
35721 C 82.90035982046209 53.96324008715868 53.25571943116336 C 0.0 **** -0.24
35722 H 83.46787419938835 54.657683735018566 52.63605458539209 H 0.0 **** 0.06
35723 H 83.34353917593799 53.91861699986583 54.25058268966164 H 0.0 **** 0.06
35724 H 82.92174649544017 52.97270970019321 52.80239374406794 H 0.0 **** 0.06
35725 H 81.8691148082479 54.30565065929784 53.33229433522169 H 0.0 **** 0.06
35726 C 111.85401038469865 54.19668706260131 91.27355033602595 C 0.0 **** -0.24
35727 H 111.78104657984429 53.11559375545312 91.15275864384029 H 0.0 **** 0.06
35728 H 111.77096086735696 54.67689211554253 90.29763434054308 H 0.0 **** 0.06
35729 H 112.81473589286617 54.44800007910871 91.72193664916404 H 0.0 **** 0.06
35730 H 111.04899456480047 54.54467544741212 91.92003052006447 H 0.0 **** 0.06
35731 C 69.10482870823525 136.3273827801673 74.03327143793166 C 0.0 **** -0.24
35732 H 68.23055454310628 136.55472064807975 74.64213445804732 H 0.0 **** 0.06
35733 H 69.52650820372914 137.25297860896583 73.64251219441591 H 0.0 **** 0.06
35734 H 68.81205874760289 135.68258853351892 73.20459345757205 H 0.0 **** 0.06
35735 H 69.8499723924682 135.8171102598831 74.64447922358161 H 0.0 **** 0.06
35736 C 136.60629368478743 11.815817788314547 56.636800915291076 C 0.0 **** -0.24
35737 H 135.97691170515657 11.370464838324807 55.8668430605172 H 0.0 **** 0.06
35738 H 136.89475122874643 11.050224135293064 57.357399755759175 H 0.0 **** 0.06
35739 H 136.0534725359904 12.605370000178084 57.14623998323245 H 0.0 **** 0.06
35740 H 137.50077626472523 12.237508439482554 56.176113314104825 H 0.0 **** 0.06
35741 C 136.30391673782026 117.00801613961042 129.59745662855036 C 0.0 **** -0.24
35742 H 136.16885964556542 116.0083669207466 130.01074356779486 H 0.0 **** 0.06
35743 H 135.75005036050754 117.09227682474915 128.6619496652555 H 0.0 **** 0.06
35744 H 137.363074509218 117.1831304941667 129.40943315267538 H 0.0 **** 0.06
35745 H 135.93392884152598 117.7480481183145 130.30676168849743 H 0.0 **** 0.06
35746 C 1.9537786694744028 113.05775338488237 1.0813280766309958 C 0.0 **** -0.24
35747 H 1.1445964847722436 113.68266552322837 0.7039091367551578 H 0.0 **** 0.06
35748 H 2.853265711499791 113.6626173289603 1.2023189875664002 H 0.0 **** 0.06
35749 H 2.1503310714466863 112.25204129047674 0.37365918575096657 H 0.0 **** 0.06
35750 H 1.6678280206002079 112.63455137300798 2.043864470880294 H 0.0 **** 0.06
35751 C 0.8498507369557728 0.07238380067795802 116.1353918846209 C 0.0 **** -0.24
35752 H 1.5714098569587804 0.6149943842085683 116.74628243143059 H 0.0 **** 0.06
35753 H 0.8642824297854759 0.46822124478725513 115.11933550830028 H 0.0 **** 0.06
35754 H -0.1475200967533965 0.1923027368059742 116.55899541659304 H 0.0 **** 0.06
35755 H 1.1127291561459174 -0.9855802211264724 116.11772397388938 H 0.0 **** 0.06
35756 C 91.13859440328395 74.2016061994687 54.93089081974601 C 0.0 **** -0.24
35757 H 91.40846121771406 73.22147777658836 55.32496095305831 H 0.0 **** 0.06
35758 H 90.29700396696484 74.60156740239296 55.49591790541194 H 0.0 **** 0.06
35759 H 90.85961832730118 74.1059178429955 53.881050261460686 H 0.0 **** 0.06
35760 H 91.99094478946714 74.87583563502187 55.020012041695736 H 0.0 **** 0.06
35761 C 29.58645628118534 77.70268672055714 74.36414016710404 C 0.0 **** -0.24
35762 H 30.316649729091324 77.65113455032272 73.55752756597838 H 0.0 **** 0.06
35763 H 30.06161261108536 78.10540867329402 75.25938181809568 H 0.0 **** 0.06
35764 H 29.2039362875869 76.70409065557155 74.57283460269821 H 0.0 **** 0.06
35765 H 28.762915077353846 78.3534883945932 74.06713475418712 H 0.0 **** 0.06
35766 C 109.54393252708383 71.67138198146903 94.76510071227014 C 0.0 **** -0.24
35767 H 110.46584291288761 71.09700987861702 94.68102376110045 H 0.0 **** 0.06
35768 H 109.69943762699401 72.50954495405273 95.44634162531739 H 0.0 **** 0.06
35769 H 108.7512274745572 71.03156316450705 95.15112089417838 H 0.0 **** 0.06
35770 H 109.26090166260177 72.0498580241456 93.78234818726115 H 0.0 **** 0.06
35771 C 65.88292682650018 82.00315842402546 127.00369522613607 C 0.0 **** -0.24
35772 H 65.82583998012481 80.96247862708879 127.32356666392593 H 0.0 **** 0.06
35773 H 66.30482225247097 82.60755756541994 127.806268560827 H 0.0 **** 0.06
35774 H 64.88309967299686 82.36412598337719 126.76318715587223 H 0.0 **** 0.06
35775 H 66.51757898162575 82.07694040063859 126.11988190776378 H 0.0 **** 0.06
35776 C 55.351871176147554 21.017108489326915 135.68876836195255 C 0.0 **** -0.24
35777 H 54.67432369369084 20.47975973279256 135.0242551231936 H 0.0 **** 0.06
35778 H 55.426542957557785 20.48627268882217 136.63800097508692 H 0.0 **** 0.06
35779 H 54.96721669403301 22.022266492116557 135.8630652565987 H 0.0 **** 0.06
35780 H 56.338171404884704 21.07950432149522 135.22945293667638 H 0.0 **** 0.06
35781 C 10.388924509403381 22.981960028582705 93.46949426634473 C 0.0 **** -0.24
35782 H 9.833650603778096 22.684161514085645 94.35865565441435 H 0.0 **** 0.06
35783 H 9.703096229996547 23.42395268696663 92.74508123933563 H 0.0 **** 0.06
35784 H 10.867996451527588 22.107162990893983 93.02958144740478 H 0.0 **** 0.06
35785 H 11.149479108129839 23.713117230213072 93.74394084114095 H 0.0 **** 0.06
35786 C 6.619165583941083 24.612358754871877 39.920299196076286 C 0.0 **** -0.24
35787 H 6.795109818400817 25.578238244584092 39.44720250309152 H 0.0 **** 0.06
35788 H 7.049961842718915 24.614904981351714 40.92173675228926 H 0.0 **** 0.06
35789 H 7.086275066078656 23.82619281670538 39.32576325416045 H 0.0 **** 0.06
35790 H 5.547270860147393 24.429366346552527 39.98569397742045 H 0.0 **** 0.06
35791 C 53.35923226616637 113.94665900857484 114.58194646653544 C 0.0 **** -0.24
35792 H 53.11063864063908 112.90173856285568 114.39907086153744 H 0.0 **** 0.06
35793 H 54.24628312473121 114.21533975234928 114.00808192986341 H 0.0 **** 0.06
35794 H 53.55544547254215 114.09263928250198 115.6445989226903 H 0.0 **** 0.06
35795 H 52.52290417818031 114.5768665421327 114.27753406535021 H 0.0 **** 0.06
35796 C 126.61647241263029 84.53878541288123 82.93409056411267 C 0.0 **** -0.24
35797 H 126.80230088968557 84.87779226022991 83.95250802678112 H 0.0 **** 0.06
35798 H 127.55779562206214 84.50484167349754 82.38489157016801 H 0.0 **** 0.06
35799 H 125.93219298980561 85.22926993610048 82.44007042174621 H 0.0 **** 0.06
35800 H 126.17325365416549 83.54276203643337 82.95808374895364 H 0.0 **** 0.06
35801 C 130.09329327371523 71.66310321919588 23.723760012795303 C 0.0 **** -0.24
35802 H 129.60715678673486 70.71629265790443 23.490691155061953 H 0.0 **** 0.06
35803 H 129.9352146897013 72.36398692421002 22.903929379920356 H 0.0 **** 0.06
35804 H 131.16191392790512 71.49778694630567 23.860904055824854 H 0.0 **** 0.06
35805 H 129.66800010256384 72.07303965761062 24.640226013635278 H 0.0 **** 0.06
35806 C 92.19728539842667 111.08021845365548 19.888227044641326 C 0.0 **** -0.24
35807 H 92.98119104017564 111.07658467327187 20.64608180491421 H 0.0 **** 0.06
35808 H 92.59009850898849 111.50017793582035 18.96160791552287 H 0.0 **** 0.06
35809 H 91.3605325725264 111.68564898280573 20.234942474708106 H 0.0 **** 0.06
35810 H 91.85967912044998 110.05887502904491 19.710787772721815 H 0.0 **** 0.06
35811 C 26.24821558787488 70.77874115830836 93.42728632938642 C 0.0 **** -0.24
35812 H 26.1390414517264 71.85640774197358 93.29725594392646 H 0.0 **** 0.06
35813 H 27.062045666771354 70.57865433191706 94.1245251297121 H 0.0 **** 0.06
35814 H 26.471422428473034 70.3180491793379 92.46489260747423 H 0.0 **** 0.06
35815 H 25.320943004001094 70.36506780925474 93.82190628787414 H 0.0 **** 0.06
35816 C 82.61122729374046 27.844199646640675 11.455688562711803 C 0.0 **** -0.24
35817 H 82.39180791773633 27.136786911485217 12.255608832196767 H 0.0 **** 0.06
35818 H 82.09393140439 27.53467639017373 10.54711087424215 H 0.0 **** 0.06
35819 H 83.68569100200165 27.8630355078526 11.273096079829372 H 0.0 **** 0.06
35820 H 82.27360921595957 28.83817975640494 11.746842429692247 H 0.0 **** 0.06
35821 C 24.46205690855487 84.11651230464676 119.19978203789503 C 0.0 **** -0.24
35822 H 24.984555477330275 83.57689737924325 118.40986555984861 H 0.0 **** 0.06
35823 H 23.73490806802272 83.45511764421683 119.67272898047923 H 0.0 **** 0.06
35824 H 23.94644148528721 84.97635729906224 118.77215558804386 H 0.0 **** 0.06
35825 H 25.181469072001505 84.45722284193738 119.94412235733003 H 0.0 **** 0.06
35826 C 29.537801562775975 81.32021735935189 53.416093001197694 C 0.0 **** -0.24
35827 H 30.006322999625716 80.65598993479085 54.14275570389512 H 0.0 **** 0.06
35828 H 28.896634815574117 80.73823265777884 52.75349651371717 H 0.0 **** 0.06
35829 H 30.308447676372374 81.8198764363359 52.8306655063064 H 0.0 **** 0.06
35830 H 28.938819715826924 82.06504550969993 53.93970432409213 H 0.0 **** 0.06
35831 C 134.77827846061768 85.1314780713829 75.64982851833395 C 0.0 **** -0.24
35832 H 133.97337835428328 84.64177772566498 76.1959378025266 H 0.0 **** 0.06
35833 H 134.47337779582935 85.28513318477036 74.61357813422421 H 0.0 **** 0.06
35834 H 135.66976647981448 84.50551526140018 75.67794790842714 H 0.0 **** 0.06
35835 H 134.9968410663156 86.09551020558689 76.11093324569163 H 0.0 **** 0.06
35836 C 135.67901822138353 100.27170594962743 65.01965736418282 C 0.0 **** -0.24
35837 H 135.8398821156878 100.48570184854754 63.962662727495 H 0.0 **** 0.06
35838 H 136.3210442560159 100.91458282335003 65.62202765632458 H 0.0 **** 0.06
35839 H 135.91804995964026 99.22755687711583 65.21860849288942 H 0.0 **** 0.06
35840 H 134.6356409130061 100.45978711966507 65.2728338401734 H 0.0 **** 0.06
35841 C 113.19442947031487 99.24075994271027 43.26670751750328 C 0.0 **** -0.24
35842 H 112.83788808108906 98.53101052610201 44.012886480105195 H 0.0 **** 0.06
35843 H 113.24026013828504 98.75245493462883 42.292864681965625 H 0.0 **** 0.06
35844 H 114.18826771674344 99.59180841118535 43.54493509792226 H 0.0 **** 0.06
35845 H 112.51181597876862 100.08869661409094 43.21707635031561 H 0.0 **** 0.06
35846 C 9.560683377261952 96.4853584281019 2.271730557427304 C 0.0 **** -0.24
35847 H 10.43470109803043 96.67617339016587 2.8951852695657294 H 0.0 **** 0.06
35848 H 9.773876229861287 96.78531197674633 1.2461864605625124 H 0.0 **** 0.06
35849 H 8.712911303837927 97.05722319654285 2.6497838424818383 H 0.0 **** 0.06
35850 H 9.322127071648282 95.42213019215285 2.2979730200902964 H 0.0 **** 0.06
35851 C 54.37059075326633 0.049157516061740125 21.104249074716506 C 0.0 **** -0.24
35852 H 55.059101848437194 0.1872035369134437 21.93760182454065 H 0.0 **** 0.06
35853 H 54.88262184867742 0.2770599656255115 20.16864832879378 H 0.0 **** 0.06
35854 H 53.51608547197628 0.7156544707819705 21.224043170431827 H 0.0 **** 0.06
35855 H 54.02566958686475 -0.9854052268590294 21.086181092662827 H 0.0 **** 0.06
35856 C 11.67620415658223 43.477643707062526 29.16535052867394 C 0.0 **** -0.24
35857 H 11.640321895201055 44.03282609331866 30.1029128270564 H 0.0 **** 0.06
35858 H 12.276253520025193 42.57676337759514 29.29938606550259 H 0.0 **** 0.06
35859 H 12.123630247857136 44.09992687298086 28.390925856782218 H 0.0 **** 0.06
35860 H 10.66443159594337 43.19921780609249 28.869434331000974 H 0.0 **** 0.06
35861 C 96.99373619241396 75.2040972090779 71.71352086958377 C 0.0 **** -0.24
35862 H 96.79662692921562 75.60135110111901 72.70934030879351 H 0.0 **** 0.06
35863 H 96.36552748020483 74.33019331743932 71.54031037426981 H 0.0 **** 0.06
35864 H 98.04307757753867 74.91799418273067 71.6375352955728 H 0.0 **** 0.06
35865 H 96.77047641409257 75.96674491565312 70.96753454072389 H 0.0 **** 0.06
35866 C 64.7243934508644 33.615801825679696 0.7239456893607361 C 0.0 **** -0.24
35867 H 64.05115420992468 32.95988972135924 1.2768212141790158 H 0.0 **** 0.06
35868 H 65.64253919612196 33.75736082062468 1.2939829664473166 H 0.0 **** 0.06
35869 H 64.24106106053426 34.580525979658006 0.566220551916782 H 0.0 **** 0.06
35870 H 64.95985273334867 33.16517061003861 -0.2401780023537512 H 0.0 **** 0.06
35871 C 47.186426501088675 114.41690582837259 24.992150529528075 C 0.0 **** -0.24
35872 H 47.62428232567433 113.85654704952643 24.16570548790093 H 0.0 **** 0.06
35873 H 47.63546240448821 115.41029365107786 25.035596550221676 H 0.0 **** 0.06
35874 H 47.37618226356457 113.89085931364377 25.928753413760873 H 0.0 **** 0.06
35875 H 46.111800335601316 114.50974568933299 24.839486310737186 H 0.0 **** 0.06
35876 C 4.074856360187084 26.5686051016217 5.757943007655115 C 0.0 **** -0.24
35877 H 4.928773413466615 26.105844013810042 5.263382703191439 H 0.0 **** 0.06
35878 H 3.8685796637317935 26.04546445377059 6.692143140644163 H 0.0 **** 0.06
35879 H 3.2030932165953345 26.509627074573274 5.107255204382312 H 0.0 **** 0.06
35880 H 4.301251777811331 27.614340819413997 5.9686704079714445 H 0.0 **** 0.06
35881 C 29.856658928987514 104.63011264676399 91.63568472982024 C 0.0 **** -0.24
35882 H 30.116084306634946 104.48695497149527 90.58715033629844 H 0.0 **** 0.06
35883 H 28.82067200926491 104.96134880868232 91.71130745775054 H 0.0 **** 0.06
35884 H 30.512081626960878 105.38400475338756 92.07254611722635 H 0.0 **** 0.06
35885 H 29.9772987909993 103.68933553924055 92.17116343007355 H 0.0 **** 0.06
35886 C 119.87989087986253 5.9397221685823 61.53031944443724 C 0.0 **** -0.24
35887 H 120.20454185368285 6.711601710245155 60.83227661138018 H 0.0 **** 0.06
35888 H 119.59575580778463 5.044900143908411 60.975682706336855 H 0.0 **** 0.06
35889 H 119.0232309367847 6.30246460365559 62.09980500745753 H 0.0 **** 0.06
35890 H 120.69504118827427 5.700775060019591 62.21237974543378 H 0.0 **** 0.06
35891 C 98.86286975061056 103.84453652803865 113.26926537383679 C 0.0 **** -0.24
35892 H 98.30869039327838 104.53441726949347 113.9048130210598 H 0.0 **** 0.06
35893 H 98.58804467893033 102.81989926553229 113.51938477726947 H 0.0 **** 0.06
35894 H 99.93236475857987 103.98282755291666 113.4293562980888 H 0.0 **** 0.06
35895 H 98.62319729477922 104.0404161414163 112.22450113359889 H 0.0 **** 0.06
35896 C 35.05802878584382 52.04466650375946 132.12139703608557 C 0.0 **** -0.24
35897 H 34.98017113485031 53.0290327211183 131.65834794500603 H 0.0 **** 0.06
35898 H 36.10982802922621 51.787428926542546 132.2512249922918 H 0.0 **** 0.06
35899 H 34.57771755057428 51.303305723452695 131.48255715960968 H 0.0 **** 0.06
35900 H 34.56564768831868 52.06162406267099 133.09356695216516 H 0.0 **** 0.06
35901 C 126.61880666951492 88.40159515276713 32.83708830285872 C 0.0 **** -0.24
35902 H 127.32080688048114 88.02549836746195 32.092984166064184 H 0.0 **** 0.06
35903 H 127.08187087572969 89.21631490111673 33.39376445073577 H 0.0 **** 0.06
35904 H 126.3509540267147 87.59746899619691 33.522727540883636 H 0.0 **** 0.06
35905 H 125.72210968111068 88.7670400820754 32.335922054969956 H 0.0 **** 0.06
35906 C 3.880101662188718 62.6027209882877 40.240279226852806 C 0.0 **** -0.24
35907 H 4.604974145983931 61.80887026750038 40.05960552783648 H 0.0 **** 0.06
35908 H 2.8723390148918817 62.18694091052478 40.21616535214277 H 0.0 **** 0.06
35909 H 3.976365272932185 63.36612998828117 39.46791137314321 H 0.0 **** 0.06
35910 H 4.065900148922392 63.04868410380733 41.21693722480471 H 0.0 **** 0.06
35911 C 31.298326306175653 2.059637902695897 120.20579531595259 C 0.0 **** -0.24
35912 H 31.40562224454365 3.1354985205885555 120.06350115983325 H 0.0 **** 0.06
35913 H 32.02407425958455 1.716653272830058 120.94242783046971 H 0.0 **** 0.06
35914 H 31.472102069495293 1.5493771994398742 119.25807801114857 H 0.0 **** 0.06
35915 H 30.290803051901804 1.8393117026813286 120.55710895302582 H 0.0 **** 0.06
35916 C 9.873991165988286 97.8303956435384 37.33173096867151 C 0.0 **** -0.24
35917 H 10.527102239749354 98.50845132810906 36.78392224541807 H 0.0 **** 0.06
35918 H 9.506002614447937 97.05630144712569 36.65804507685749 H 0.0 **** 0.06
35919 H 9.03151780014656 98.38803827712402 37.74017356855052 H 0.0 **** 0.06
35920 H 10.431418512514995 97.36796680487168 38.146860054160754 H 0.0 **** 0.06
35921 C 97.1650535313355 110.90674826822689 22.627371015837383 C 0.0 **** -0.24
35922 H 97.18655052202882 111.9913050080659 22.734500021835295 H 0.0 **** 0.06
35923 H 96.8302912791969 110.64724666949192 21.623350006542793 H 0.0 **** 0.06
35924 H 96.47797216320123 110.48341642934798 23.360769583332974 H 0.0 **** 0.06
35925 H 98.16442245377124 110.50501444322171 22.79287547370287 H 0.0 **** 0.06
35926 C 127.53105014252236 28.069892752683586 123.01877661202606 C 0.0 **** -0.24
35927 H 127.27374376903356 29.058797166413854 122.64087781747784 H 0.0 **** 0.06
35928 H 126.75699772581862 27.358214025477253 122.72972755419718 H 0.0 **** 0.06
35929 H 127.60524324694399 28.104505171447613 124.10604220063598 H 0.0 **** 0.06
35930 H 128.4866283868751 27.758147721577075 122.599145538724 H 0.0 **** 0.06
35931 C 12.577555932990293 104.00409810772331 40.44427839672461 C 0.0 **** -0.24
35932 H 12.570242701054838 104.5972855782232 41.35870674460389 H 0.0 **** 0.06
35933 H 11.59804418016057 104.05549779999308 39.96931014517898 H 0.0 **** 0.06
35934 H 12.810318732659681 102.96648284741542 40.686714330279926 H 0.0 **** 0.06
35935 H 13.333654356632152 104.39510426116937 39.76325751927473 H 0.0 **** 0.06
35936 C 100.86344299312539 79.54474953882354 136.50520069929365 C 0.0 **** -0.24
35937 H 101.07410095344297 80.51451176057378 136.05408039473315 H 0.0 **** 0.06
35938 H 101.07195471077776 78.75511080480304 135.78359098636926 H 0.0 **** 0.06
35939 H 99.81497785295244 79.50185416707919 136.79944699090058 H 0.0 **** 0.06
35940 H 101.49345886565789 79.40940852009079 137.38464364602657 H 0.0 **** 0.06
35941 C 102.65555449277439 24.921019553307758 17.31758306191921 C 0.0 **** -0.24
35942 H 103.4409816492335 24.167370841997922 17.351974474524297 H 0.0 **** 0.06
35943 H 101.76793759788043 24.543869246037957 17.825856582272195 H 0.0 **** 0.06
35944 H 102.41225802081291 25.14475009265928 16.279084377765003 H 0.0 **** 0.06
35945 H 103.00116625690535 25.8279785852082 17.81440286782413 H 0.0 **** 0.06
35946 C 60.01756334404274 81.11573020723574 64.47700072286862 C 0.0 **** -0.24
35947 H 60.18856044112141 81.33849942622555 65.53025754576419 H 0.0 **** 0.06
35948 H 59.44504874989062 80.19222827403121 64.39061044437484 H 0.0 **** 0.06
35949 H 60.976269280539526 80.99860146807407 63.97179200735684 H 0.0 **** 0.06
35950 H 59.46193001370756 81.93298830134034 64.01937011062235 H 0.0 **** 0.06
35951 C 19.56411423325011 102.7983542868454 65.23247015333865 C 0.0 **** -0.24
35952 H 18.824432728138277 102.05431061109785 65.52745205924964 H 0.0 **** 0.06
35953 H 20.53825264055058 102.31885437126975 65.12562279842666 H 0.0 **** 0.06
35954 H 19.622829723940043 103.57479451299041 65.99511300571646 H 0.0 **** 0.06
35955 H 19.272768239727952 103.24334527555281 64.28124274795272 H 0.0 **** 0.06
35956 C 99.00749490454899 44.722219276368264 12.713691404201853 C 0.0 **** -0.24
35957 H 100.08174821643149 44.9031394378502 12.724355438420304 H 0.0 **** 0.06
35958 H 98.47833386463537 45.67183712086802 12.800585951027927 H 0.0 **** 0.06
35959 H 98.73860503475777 44.07859130397742 13.55190520866455 H 0.0 **** 0.06
35960 H 98.73043661722545 44.23529481701411 11.779044782971482 H 0.0 **** 0.06
35961 C 110.29856816637019 117.9546839923174 5.478304446431736 C 0.0 **** -0.24
35962 H 109.95778193731817 118.50878002109047 6.353129238119436 H 0.0 **** 0.06
35963 H 109.49146071985373 117.31791155947383 5.1152141962689655 H 0.0 **** 0.06
35964 H 111.15494575029305 117.33927748851386 5.749767563581173 H 0.0 **** 0.06
35965 H 110.58790129600999 118.65577996787866 4.694710872558062 H 0.0 **** 0.06
35966 C 55.49042825886488 83.65920892966265 100.8525552937615 C 0.0 **** -0.24
35967 H 56.445848743487176 83.13421832532246 100.83396345172989 H 0.0 **** 0.06
35968 H 55.39390430196457 84.20168458006057 101.79305907272666 H 0.0 **** 0.06
35969 H 54.678694098095434 82.93820508034732 100.76316793091178 H 0.0 **** 0.06
35970 H 55.44625695632621 84.36284704494646 100.02105040677472 H 0.0 **** 0.06
35971 C 117.78999412750056 50.37669283621763 12.775902356256651 C 0.0 **** -0.24
35972 H 118.35573153072289 49.601375725007216 12.259661511366719 H 0.0 **** 0.06
35973 H 118.26919849225936 51.34302017115179 12.618200963328675 H 0.0 **** 0.06
35974 H 117.75987901320556 50.155475523669224 13.84284755055426 H 0.0 **** 0.06
35975 H 116.77393056663095 50.406224215112715 12.38301588755781 H 0.0 **** 0.06
35976 C 107.39844783821763 21.272018298529076 9.30347988659371 C 0.0 **** -0.24
35977 H 107.51384356695849 20.991206978854507 8.25691891815763 H 0.0 **** 0.06
35978 H 106.52904917676892 20.764583775741727 9.722722395185489 H 0.0 **** 0.06
35979 H 107.26013748938499 22.35130789842364 9.376789691966458 H 0.0 **** 0.06
35980 H 108.2914960470421 20.98164896699791 9.857417281416112 H 0.0 **** 0.06
35981 C 14.819682308640154 127.4585704808535 136.1056006241369 C 0.0 **** -0.24
35982 H 14.529303971490748 128.49532415850967 136.2717097246648 H 0.0 **** 0.06
35983 H 14.137907283689714 126.7994545959768 136.64368533790332 H 0.0 **** 0.06
35984 H 15.836008116418014 127.30386229188426 136.46723617106926 H 0.0 **** 0.06
35985 H 14.775509862962167 127.23564087704314 135.03977126291005 H 0.0 **** 0.06
35986 C 128.58122110336822 85.98242129857675 125.63955061988011 C 0.0 **** -0.24
35987 H 129.5609846363198 85.50846329926287 125.5977988122385 H 0.0 **** 0.06
35988 H 127.84221476572498 85.25861982925773 125.98443055199857 H 0.0 **** 0.06
35989 H 128.3062618900592 86.33755145094301 124.64660145319827 H 0.0 **** 0.06
35990 H 128.6145719990796 86.82467026676096 126.33043515579811 H 0.0 **** 0.06
35991 C 92.58307387110122 12.319635597336855 65.22728060616363 C 0.0 **** -0.24
35992 H 93.53695310936399 11.829549160678482 65.03713945278777 H 0.0 **** 0.06
35993 H 92.44908379287727 13.140752770430083 64.52304391981737 H 0.0 **** 0.06
35994 H 92.57034053416714 12.708641109553753 66.2452715791617 H 0.0 **** 0.06
35995 H 91.77436369017073 11.598836865921385 65.10361521558919 H 0.0 **** 0.06
35996 C 34.25724499755023 6.132344229067883 28.729637061706512 C 0.0 **** -0.24
35997 H 34.71849877336331 6.5525058518130095 27.83579522251867 H 0.0 **** 0.06
35998 H 33.57011397598774 5.335483454245491 28.443020625655038 H 0.0 **** 0.06
35999 H 33.710341694937995 6.913327931236182 29.25664582345648 H 0.0 **** 0.06
36000 H 35.032155119226616 5.728543262425035 29.38102951864215 H 0.0 **** 0.06
36001 C 93.8543046472468 136.75516507885916 52.0767363176121 C 0.0 **** -0.24
36002 H 93.30985507751942 135.90626828332736 52.49290582376457 H 0.0 **** 0.06
36003 H 93.54610529484832 137.66848359017598 52.58537715981693 H 0.0 **** 0.06
36004 H 93.63622253393453 136.83924591299296 51.012950821347275 H 0.0 **** 0.06
36005 H 94.92435354068606 136.6028189909929 52.21811206369881 H 0.0 **** 0.06
36006 C 126.15547456719723 39.25080901396673 16.180023058844966 C 0.0 **** -0.24
36007 H 126.5251044877115 40.26381504997541 16.023024572348334 H 0.0 **** 0.06
36008 H 125.3428030872527 39.048827815248245 15.482388688506802 H 0.0 **** 0.06
36009 H 125.7894069170482 39.15277730372622 17.202510891167492 H 0.0 **** 0.06
36010 H 126.96369680112102 38.539306040735354 16.01357980128816 H 0.0 **** 0.06
36011 C 51.06050698761044 68.9681123792468 4.968254330230906 C 0.0 **** -0.24
36012 H 51.539627536180035 68.99379150143523 5.947634340573302 H 0.0 **** 0.06
36013 H 50.50110870561605 68.03900068819405 4.863130361110251 H 0.0 **** 0.06
36014 H 51.82134060649889 69.02552475244948 4.1906760223475885 H 0.0 **** 0.06
36015 H 50.3797377112146 69.81461473631259 4.875281004205505 H 0.0 **** 0.06
36016 C 30.55993804757955 30.353807782673535 113.58228649579337 C 0.0 **** -0.24
36017 H 30.53170918734338 31.320505462096293 113.08034750536225 H 0.0 **** 0.06
36018 H 29.84799455681997 29.67823356917436 113.10721802773918 H 0.0 **** 0.06
36019 H 30.295169168639063 30.481860410962078 114.63183164695334 H 0.0 **** 0.06
36020 H 31.56370326047923 29.9354639570944 113.50836154026086 H 0.0 **** 0.06
36021 C 22.89592490087213 61.021141345519936 26.528463367136283 C 0.0 **** -0.24
36022 H 23.57876341386074 61.86384103162118 26.42354513991708 H 0.0 **** 0.06
36023 H 23.081010982732494 60.51880518394134 27.47834368620056 H 0.0 **** 0.06
36024 H 23.054975417127054 60.32075246050903 25.70851677907382 H 0.0 **** 0.06
36025 H 21.867671913752588 61.38214445513887 26.502259913475882 H 0.0 **** 0.06
36026 C 119.61826641072923 69.00545212567522 114.63870570735259 C 0.0 **** -0.24
36027 H 120.16857208025075 69.87259713995255 114.27432921193142 H 0.0 **** 0.06
36028 H 119.93007107708755 68.77974795183914 115.65859028332295 H 0.0 **** 0.06
36029 H 119.82376429482187 68.14868897137723 113.9972678218439 H 0.0 **** 0.06
36030 H 118.54976111997337 69.22177537196052 114.6250753884041 H 0.0 **** 0.06
36031 C 123.18902301444508 45.788412657077856 53.73653461371977 C 0.0 **** -0.24
36032 H 123.15828938286062 44.980631473453286 54.468221089186386 H 0.0 **** 0.06
36033 H 124.1997551254232 45.87829211474468 53.33843117652532 H 0.0 **** 0.06
36034 H 122.9031717284244 46.72430780309821 54.217098241790055 H 0.0 **** 0.06
36035 H 122.49579181110971 45.569558796819194 52.92511210266622 H 0.0 **** 0.06
36036 C 41.54262405338059 26.858359241520503 61.94742158438993 C 0.0 **** -0.24
36037 H 40.49148044816559 26.64337930523761 62.138907342077076 H 0.0 **** 0.06
36038 H 42.15917765507595 26.35353963360943 62.69169567347237 H 0.0 **** 0.06
36039 H 41.70958901690207 27.934385376212816 62.00513262076565 H 0.0 **** 0.06
36040 H 41.81001896390666 26.502001193680343 60.95173034291207 H 0.0 **** 0.06
36041 C 13.340330924429509 13.360998583762111 57.11146103090584 C 0.0 **** -0.24
36042 H 13.204291046395596 14.395026432236918 56.793629862793196 H 0.0 **** 0.06
36043 H 12.410228100963167 12.988215002049131 57.539429674328304 H 0.0 **** 0.06
36044 H 14.13061303342755 13.312658302092117 57.86053877217785 H 0.0 **** 0.06
36045 H 13.61616657227465 12.750876671032643 56.25173608703835 H 0.0 **** 0.06
36046 C 46.96389460829728 101.57195172723092 90.55757210340087 C 0.0 **** -0.24
36047 H 46.653338800465875 101.40471652115133 91.5887115301816 H 0.0 **** 0.06
36048 H 48.03170760194956 101.37445861421816 90.46251448803407 H 0.0 **** 0.06
36049 H 46.7588268288071 102.60618302194663 90.28009611621495 H 0.0 **** 0.06
36050 H 46.410040177868126 100.90267854940426 89.89938464117294 H 0.0 **** 0.06
36051 C 97.97859410124705 35.018981282890614 1.6318936439752179 C 0.0 **** -0.24
36052 H 98.1440344158232 36.07240665677285 1.407560157139585 H 0.0 **** 0.06
36053 H 98.93262362368093 34.49078112857776 1.6203877905720674 H 0.0 **** 0.06
36054 H 97.31569235153408 34.58746387712457 0.8820202854587933 H 0.0 **** 0.06
36055 H 97.52287566779513 34.924148575893255 2.6174932218264075 H 0.0 **** 0.06
36056 C 79.73420583058288 82.43945605787769 20.13494162748792 C 0.0 **** -0.24
36057 H 78.6449384733836 82.40907851608691 20.113920674106062 H 0.0 **** 0.06
36058 H 80.1311662271707 81.75392945587404 19.38530648487246 H 0.0 **** 0.06
36059 H 80.08680961778214 82.14138175015117 21.122732787379178 H 0.0 **** 0.06
36060 H 80.07347004932024 83.45150876062098 19.91812119961505 H 0.0 **** 0.06
36061 C 20.158796402488633 0.3281789608150518 39.96152450061134 C 0.0 **** -0.24
36062 H 20.69446074019342 -0.5583887528884475 40.29753248165558 H 0.0 **** 0.06
36063 H 20.023009837669463 1.0106649164401063 40.80050363708484 H 0.0 **** 0.06
36064 H 19.184645601948944 0.03665450947238469 39.568561669534695 H 0.0 **** 0.06
36065 H 20.731942789816543 0.82396726135417 39.1775772591178 H 0.0 **** 0.06
36066 C 41.43376109916204 1.4852605757530206 12.358883039677778 C 0.0 **** -0.24
36067 H 41.70499536962825 2.5397099439330333 12.309188442540602 H 0.0 **** 0.06
36068 H 40.577096470422475 1.2998793031108349 11.71030876025742 H 0.0 **** 0.06
36069 H 41.176319992813774 1.2239711648103366 13.385172944727145 H 0.0 **** 0.06
36070 H 42.277751152356245 0.8774976534707477 12.02999679222657 H 0.0 **** 0.06
36071 C 92.08291036617797 18.493338811343776 88.55498110361566 C 0.0 **** -0.24
36072 H 92.5134795185918 18.51936693586945 87.55416454451529 H 0.0 **** 0.06
36073 H 92.68577795560607 17.848495059334226 89.19351318243662 H 0.0 **** 0.06
36074 H 91.06499201944432 18.10465986875274 88.50198987338877 H 0.0 **** 0.06
36075 H 92.06587966054117 19.501613517011947 88.96880611185952 H 0.0 **** 0.06
36076 C 79.26352724865728 13.535061361203304 99.43691926623224 C 0.0 **** -0.24
36077 H 78.61655868019204 12.832811180687543 99.96211674519593 H 0.0 **** 0.06
36078 H 80.24033483589676 13.078303479524862 99.27618575793475 H 0.0 **** 0.06
36079 H 79.37787904417394 14.439323297721927 100.03435132078633 H 0.0 **** 0.06
36080 H 78.81756156039467 13.788463784035741 98.4748122509962 H 0.0 **** 0.06
36081 C 134.7451308547249 130.8637549980758 128.02245269405645 C 0.0 **** -0.24
36082 H 134.19661324494615 131.2737808937344 128.87014735267087 H 0.0 **** 0.06
36083 H 134.28712898963187 131.2064088797886 127.09389266317356 H 0.0 **** 0.06
36084 H 134.7141706928943 129.7745080525997 128.06193259385793 H 0.0 **** 0.06
36085 H 135.78090652390176 131.20013311807298 128.06280814668364 H 0.0 **** 0.06
36086 C 92.87827871636101 58.93637399163002 72.70429870932216 C 0.0 **** -0.24
36087 H 93.4131239377805 57.994866145902165 72.57678534649376 H 0.0 **** 0.06
36088 H 91.88170190363772 58.73586835944239 73.09866179856336 H 0.0 **** 0.06
36089 H 92.79347394277065 59.43930328705834 71.7403451869988 H 0.0 **** 0.06
36090 H 93.42367813631867 59.5729338497938 73.39932027107683 H 0.0 **** 0.06
36091 C 62.1467487639766 39.921060060225955 96.67961157510825 C 0.0 **** -0.24
36092 H 62.80468644233753 40.639330199828464 96.19160540085403 H 0.0 **** 0.06
36093 H 62.696011032552775 39.39957075672123 97.4638034849246 H 0.0 **** 0.06
36094 H 61.788586954571144 39.19929901337332 95.94534583060573 H 0.0 **** 0.06
36095 H 61.296867458115315 40.44551853840562 97.1175615508439 H 0.0 **** 0.06
36096 C 74.51382464896658 16.27374725996765 105.49093747196599 C 0.0 **** -0.24
36097 H 74.49061935545811 15.359522063851955 106.08435628279597 H 0.0 **** 0.06
36098 H 75.08309313626816 17.03693940769034 106.02157312559041 H 0.0 **** 0.06
36099 H 73.4954392442015 16.62645633107263 105.3281506906161 H 0.0 **** 0.06
36100 H 74.9855809834398 16.069688903629043 104.52960234734229 H 0.0 **** 0.06
36101 C 86.20841757539614 93.38241411195196 124.34485658570753 C 0.0 **** -0.24
36102 H 86.05742618383158 92.60461792841122 125.09334757017723 H 0.0 **** 0.06
36103 H 85.55324196761745 94.22591638171401 124.5618955093025 H 0.0 **** 0.06
36104 H 85.97481361215807 92.98537525786452 123.35654163636733 H 0.0 **** 0.06
36105 H 87.2467824002247 93.71180245696924 124.36813384084184 H 0.0 **** 0.06
36106 C 128.84744558037931 84.89149963088056 31.384449305582216 C 0.0 **** -0.24
36107 H 129.4879829607334 84.14341723651157 30.91737152161378 H 0.0 **** 0.06
36108 H 128.66379054137872 85.7020414574757 30.678989279250864 H 0.0 **** 0.06
36109 H 129.33850218973652 85.28745645026947 32.27322242235 H 0.0 **** 0.06
36110 H 127.89923152633799 84.43368999521562 31.66607938744501 H 0.0 **** 0.06
36111 C 84.02379084762173 53.21853391822481 133.03546138627442 C 0.0 **** -0.24
36112 H 84.8262206249027 53.579620564826115 132.39207973177997 H 0.0 **** 0.06
36113 H 84.44261892615918 52.88106009095927 133.98356608686572 H 0.0 **** 0.06
36114 H 83.51306275363659 52.38876630627749 132.5466704350691 H 0.0 **** 0.06
36115 H 83.3136054426575 54.02594765645142 133.2177136080356 H 0.0 **** 0.06
36116 C 34.03784085581886 58.90059750225066 6.517460248177088 C 0.0 **** -0.24
36117 H 32.99541244384859 59.218507104868536 6.528393697246543 H 0.0 **** 0.06
36118 H 34.12073112157137 57.94207559322382 6.0038163260273905 H 0.0 **** 0.06
36119 H 34.39683597221645 58.7967980485862 7.541583414194008 H 0.0 **** 0.06
36120 H 34.638700008346575 59.645829450467886 5.995570686087831 H 0.0 **** 0.06
36121 C 120.04250684327636 111.6228307885722 109.68325362933652 C 0.0 **** -0.24
36122 H 118.98673564965912 111.43640858895378 109.8792689332023 H 0.0 **** 0.06
36123 H 120.19232043838781 111.77424001315106 108.6141104159442 H 0.0 **** 0.06
36124 H 120.63060747553675 110.76638248513848 110.01513776138606 H 0.0 **** 0.06
36125 H 120.35987205062537 112.51292649801434 110.22544267579565 H 0.0 **** 0.06
36126 C 127.32752126457103 83.18612521695475 73.13946606972257 C 0.0 **** -0.24
36127 H 127.45063593568192 83.24650402202802 74.22032738893925 H 0.0 **** 0.06
36128 H 128.25521208880585 83.48232208675032 72.65037488666891 H 0.0 **** 0.06
36129 H 126.52291816805847 83.85274707627885 72.82806561179028 H 0.0 **** 0.06
36130 H 127.07933827316776 82.1618987290273 72.85923328202033 H 0.0 **** 0.06
36131 C 92.94798449609274 26.509266582757505 106.37944386290502 C 0.0 **** -0.24
36132 H 93.35227974975331 25.56495543429253 106.0174041153688 H 0.0 **** 0.06
36133 H 91.86686896065544 26.422854696159476 106.49328278122871 H 0.0 **** 0.06
36134 H 93.17641728860173 27.300166926905632 105.66504889858253 H 0.0 **** 0.06
36135 H 93.39661911076183 26.750908338926052 107.34331643456157 H 0.0 **** 0.06
36136 C 121.50254217806653 23.992464384645153 125.13101789733295 C 0.0 **** -0.24
36137 H 122.06399487906765 23.3163339950436 124.48587477732735 H 0.0 **** 0.06
36138 H 120.56349678765619 24.260757618580094 124.64579464001972 H 0.0 **** 0.06
36139 H 122.08991502989552 24.89318926637823 125.31026325404835 H 0.0 **** 0.06
36140 H 121.29391716977827 23.499347081702588 126.08023809045262 H 0.0 **** 0.06
36141 C 19.410714017160394 47.49313017268162 34.17021068168931 C 0.0 **** -0.24
36142 H 19.718922185695668 46.632965638212795 33.576066970012576 H 0.0 **** 0.06
36143 H 20.020391847496114 48.35648428180457 33.90196316362601 H 0.0 **** 0.06
36144 H 19.543815120096184 47.26931200304671 35.22824023944274 H 0.0 **** 0.06
36145 H 18.36193369704184 47.71350485276639 33.97431569526727 H 0.0 **** 0.06
36146 C 117.69350828463638 48.25144462496684 98.97121509024907 C 0.0 **** -0.24
36147 H 117.14130435949801 47.52225719927654 99.5642214934897 H 0.0 **** 0.06
36148 H 117.425794868492 48.14056079694444 97.91998228561206 H 0.0 **** 0.06
36149 H 118.76352434382187 48.083829836119634 99.09386490103333 H 0.0 **** 0.06
36150 H 117.44244143835064 49.257456836488615 99.30628060114566 H 0.0 **** 0.06
36151 C 46.060741227184366 112.559328191921 34.3226510233375 C 0.0 **** -0.24
36152 H 46.044903193917875 113.17729069469362 35.220372895914444 H 0.0 **** 0.06
36153 H 45.041918698123204 112.42628099179541 33.95636801757458 H 0.0 **** 0.06
36154 H 46.49185700045213 111.58595272185315 34.558825730598116 H 0.0 **** 0.06
36155 H 46.662071436661705 113.04689792030601 33.55558793420863 H 0.0 **** 0.06
36156 C 21.67896207845547 54.2891099703516 9.116958801729169 C 0.0 **** -0.24
36157 H 21.62017648274727 54.5632292690471 10.170038049048145 H 0.0 **** 0.06
36158 H 20.717438673563294 53.89210330532423 8.791358565014264 H 0.0 **** 0.06
36159 H 22.450294469038283 53.52979128749655 8.98248347887764 H 0.0 **** 0.06
36160 H 21.92860300440867 55.16972274133356 8.525376514916672 H 0.0 **** 0.06
36161 C 12.672468068482718 0.3408940216910423 63.98403452206827 C 0.0 **** -0.24
36162 H 13.458766146268342 -0.29137292781973656 64.39674617816502 H 0.0 **** 0.06
36163 H 12.368578958689135 1.076365693515072 64.72939143267436 H 0.0 **** 0.06
36164 H 11.815840207203813 -0.27591341174519357 63.711484747258396 H 0.0 **** 0.06
36165 H 13.045809733606873 0.8541036640740458 63.09824002369703 H 0.0 **** 0.06
36166 C 15.105944927497944 5.056817702703029 103.41795296088844 C 0.0 **** -0.24
36167 H 15.57649903042062 5.656827337196489 104.1971393044428 H 0.0 **** 0.06
36168 H 15.345214150519041 4.005184521050694 103.57556942077099 H 0.0 **** 0.06
36169 H 15.477788852697813 5.37329799101235 102.44356834858431 H 0.0 **** 0.06
36170 H 14.025603766017895 5.194997102416096 103.45654664475757 H 0.0 **** 0.06
36171 C 134.88672676485803 69.36396396723109 108.37882165389618 C 0.0 **** -0.24
36172 H 134.21339895782216 70.22027062704319 108.37386550126715 H 0.0 **** 0.06
36173 H 134.33435056453933 68.46671607401834 108.09618601594522 H 0.0 **** 0.06
36174 H 135.30313857280265 69.23428229645413 109.37766945188207 H 0.0 **** 0.06
36175 H 135.69488180429633 69.5326534504465 107.66658125395617 H 0.0 **** 0.06
36176 C 102.04900217197432 72.41097658752217 4.021933760966647 C 0.0 **** -0.24
36177 H 103.00801374995207 72.43339307573602 4.539948603151231 H 0.0 **** 0.06
36178 H 101.35844106592006 73.10206258473286 4.504396739211018 H 0.0 **** 0.06
36179 H 101.64029793401562 71.40110853440345 4.059329360017671 H 0.0 **** 0.06
36180 H 102.19226393608886 72.70670338786728 2.981928541148534 H 0.0 **** 0.06
36181 C 32.544536829723256 118.423293586829 56.69269637612169 C 0.0 **** -0.24
36182 H 33.61852393482502 118.25442169456832 56.6135064135766 H 0.0 **** 0.06
36183 H 32.2688659133139 118.5171406055592 57.74290746357383 H 0.0 **** 0.06
36184 H 32.01158149965488 117.58172448032144 56.25050060076134 H 0.0 **** 0.06
36185 H 32.28081300608574 119.33893128284774 56.16323398441463 H 0.0 **** 0.06
36186 C 136.59662235753166 11.54115212096886 34.36614637541184 C 0.0 **** -0.24
36187 H 136.03039889923087 12.276344952390076 34.93862483993978 H 0.0 **** 0.06
36188 H 136.48895869814226 11.74851939207025 33.30085041862983 H 0.0 **** 0.06
36189 H 136.2180928428203 10.542513946520028 34.58194308496541 H 0.0 **** 0.06
36190 H 137.64936103331763 11.598910896642824 34.64289946050263 H 0.0 **** 0.06
36191 C 95.0389875490722 75.34760523978142 35.8238699505512 C 0.0 **** -0.24
36192 H 95.51912016479125 76.20298483366102 35.347426318610374 H 0.0 **** 0.06
36193 H 94.27220018874561 74.94570612119128 35.161005454461105 H 0.0 **** 0.06
36194 H 94.58135954257898 75.66315295683773 36.76122809239173 H 0.0 **** 0.06
36195 H 95.78485340585257 74.57831405846926 36.02426274537771 H 0.0 **** 0.06
36196 C 94.19235445848892 81.24911352367423 18.494603736105944 C 0.0 **** -0.24
36197 H 95.25703912884329 81.02826686816115 18.42639583886728 H 0.0 **** 0.06
36198 H 93.97051042634618 81.66270182167375 19.478254586155458 H 0.0 **** 0.06
36199 H 93.62073850076499 80.33331251982793 18.34692590993626 H 0.0 **** 0.06
36200 H 93.92256140930857 81.97404567437434 17.726172749144098 H 0.0 **** 0.06
36201 C 0.29290128772960244 99.86408107601187 106.58177372533059 C 0.0 **** -0.24
36202 H -0.7480002903277807 99.54426489121778 106.6304520138956 H 0.0 **** 0.06
36203 H 0.8844282385104698 99.09997973330985 106.07859283058633 H 0.0 **** 0.06
36204 H 0.6735073103388487 100.01263091861773 107.59203460069648 H 0.0 **** 0.06
36205 H 0.35885321857834995 100.8002204497854 106.02722843113638 H 0.0 **** 0.06
36206 C 120.89085626682484 84.27960835358704 8.736139591401695 C 0.0 **** -0.24
36207 H 120.06315475409295 84.94852049539003 8.49787110847555 H 0.0 **** 0.06
36208 H 120.50358498731288 83.37858499421185 9.211753847355197 H 0.0 **** 0.06
36209 H 121.5793590083344 84.78345963712133 9.415502515524196 H 0.0 **** 0.06
36210 H 121.41598657286202 84.01136060077604 7.819333519445166 H 0.0 **** 0.06
36211 C 58.275942951719216 128.50697663130177 60.834557058867276 C 0.0 **** -0.24
36212 H 57.685473372894066 128.09016029915963 60.01853322829945 H 0.0 **** 0.06
36213 H 57.804022075283754 129.42170839908619 61.1944217283455 H 0.0 **** 0.06
36214 H 59.280982711898076 128.73289474823397 60.47682923832572 H 0.0 **** 0.06
36215 H 58.33386440122027 127.7835273378123 61.647718347247064 H 0.0 **** 0.06
36216 C 51.32491383201088 27.73052449741445 27.507168187151606 C 0.0 **** -0.24
36217 H 51.35739189049757 26.644910137714845 27.423797759054622 H 0.0 **** 0.06
36218 H 51.2063710502855 28.01052315678413 28.554538457547494 H 0.0 **** 0.06
36219 H 50.48244054174907 28.11396180666202 26.931249213800136 H 0.0 **** 0.06
36220 H 52.252413461983835 28.15372865079317 27.120019900854743 H 0.0 **** 0.06
36221 C 4.337860277198214 92.50707725342505 104.38841110232073 C 0.0 **** -0.24
36222 H 4.46866054368013 92.56112206778238 103.30771618596597 H 0.0 **** 0.06
36223 H 4.2268414601072095 93.51460020755849 104.7907933065838 H 0.0 **** 0.06
36224 H 5.209689587582339 92.03138620887421 104.8363850934378 H 0.0 **** 0.06
36225 H 3.446502328192075 91.92375217435699 104.61719238556572 H 0.0 **** 0.06
36226 C 42.178267100326366 76.29028079322161 116.37247249723646 C 0.0 **** -0.24
36227 H 41.11072823762825 76.29191950586049 116.15171433593827 H 0.0 **** 0.06
36228 H 42.55744366342245 75.2688319312391 116.32105756002932 H 0.0 **** 0.06
36229 H 42.3423849865987 76.68902412470574 117.37331220172302 H 0.0 **** 0.06
36230 H 42.700456243617396 76.90918769479619 115.64347265885829 H 0.0 **** 0.06
36231 C 3.582931698435374 57.87699602643664 18.87449043850131 C 0.0 **** -0.24
36232 H 3.3918785677953736 57.47506109779094 17.87944668109276 H 0.0 **** 0.06
36233 H 4.126670874747646 57.13958920371802 19.464797932675594 H 0.0 **** 0.06
36234 H 2.635622283636394 58.10674281906594 19.3617258245402 H 0.0 **** 0.06
36235 H 4.177810873356634 58.78653568041025 18.789770564357298 H 0.0 **** 0.06
36236 C 31.572697963461337 4.139535749805532 42.767472313492426 C 0.0 **** -0.24
36237 H 31.59615521425866 4.418883118454062 43.820748564533126 H 0.0 **** 0.06
36238 H 30.582652349171724 3.759192031439966 42.51542586500422 H 0.0 **** 0.06
36239 H 32.317461933520235 3.365998226864633 42.57979333619289 H 0.0 **** 0.06
36240 H 31.793714783026815 5.013566639309374 42.15536888985404 H 0.0 **** 0.06
36241 C 28.11328452722981 53.22396516592367 117.81312245410984 C 0.0 **** -0.24
36242 H 28.45083948628121 53.88439202095772 117.01428261562393 H 0.0 **** 0.06
36243 H 27.287758785420593 52.609771655135006 117.45113389119481 H 0.0 **** 0.06
36244 H 27.777769755056767 53.82226797562238 118.66007678377935 H 0.0 **** 0.06
36245 H 28.936306995290494 52.58081115209963 118.12502789247847 H 0.0 **** 0.06
36246 C 122.05821646874185 87.72247782677056 53.21225663671525 C 0.0 **** -0.24
36247 H 123.03235761585128 87.38003369395705 53.56142580045933 H 0.0 **** 0.06
36248 H 122.1656771632365 88.69441939767273 52.73006178727377 H 0.0 **** 0.06
36249 H 121.37891981079417 87.81013189987112 54.05974872628043 H 0.0 **** 0.06
36250 H 121.65578972763603 87.00448142583411 52.49726924201481 H 0.0 **** 0.06
36251 C 34.545064589327865 124.49443616554447 98.80359119626752 C 0.0 **** -0.24
36252 H 33.96560150228328 125.3768795978113 98.52992855644894 H 0.0 **** 0.06
36253 H 35.37347788145652 124.79023314845506 99.44722123017073 H 0.0 **** 0.06
36254 H 34.93551658670444 124.02353991710567 97.90150416273798 H 0.0 **** 0.06
36255 H 33.90564615882761 123.79049208890959 99.33451094970094 H 0.0 **** 0.06
36256 C 59.48764315003149 104.56591135043139 111.90750972649397 C 0.0 **** -0.24
36257 H 59.00578572235612 104.09066764406104 111.05307312795651 H 0.0 **** 0.06
36258 H 58.79281112188602 104.59411575087043 112.74707273339598 H 0.0 **** 0.06
36259 H 59.77686987497184 105.58314768259773 111.64146788989424 H 0.0 **** 0.06
36260 H 60.374706234032274 103.9980125620576 112.1876777169829 H 0.0 **** 0.06
36261 C 64.39306289069262 58.92901247566776 78.91187030131394 C 0.0 **** -0.24
36262 H 63.48156364490113 59.1867954197959 78.37431839274723 H 0.0 **** 0.06
36263 H 64.65044762022075 59.73455394598534 79.59969085122322 H 0.0 **** 0.06
36264 H 65.20595947875117 58.78486664782872 78.20021506454106 H 0.0 **** 0.06
36265 H 64.23508441249365 58.007601340941164 79.47386537378102 H 0.0 **** 0.06
36266 C 22.57032935236259 120.95336891216482 8.34829563721317 C 0.0 **** -0.24
36267 H 23.013680227821 121.94398403411057 8.241567958885959 H 0.0 **** 0.06
36268 H 22.742228232444972 120.37783894163715 7.439133354947849 H 0.0 **** 0.06
36269 H 21.498493653360413 121.05243893204707 8.518675822662761 H 0.0 **** 0.06
36270 H 23.027230035428886 120.44050340926793 9.195604836186796 H 0.0 **** 0.06
36271 C 86.29173976539693 78.0175334785074 14.39967640088264 C 0.0 **** -0.24
36272 H 87.33785414814531 77.71484597794853 14.370180998085175 H 0.0 **** 0.06
36273 H 85.9344040086387 78.18913933371583 13.384105296184856 H 0.0 **** 0.06
36274 H 86.19595905939775 78.9364545913804 14.978404424822571 H 0.0 **** 0.06
36275 H 85.69936329128439 77.23091955891846 14.865680325063522 H 0.0 **** 0.06
36276 C 99.26777249482777 101.49501923636379 99.26191719779123 C 0.0 **** -0.24
36277 H 98.30852797608318 101.72416850345844 99.72876593622527 H 0.0 **** 0.06
36278 H 99.22915927084055 100.49730909372111 98.82509625650667 H 0.0 **** 0.06
36279 H 100.05481366199099 101.532887198602 100.01529445810246 H 0.0 **** 0.06
36280 H 99.47566932514843 102.22650389209144 98.48071415769698 H 0.0 **** 0.06
36281 C 84.0027065832248 67.82531855934008 116.46300844789585 C 0.0 **** -0.24
36282 H 85.0608330078793 67.56310910789972 116.4366497646808 H 0.0 **** 0.06
36283 H 83.69528508586004 68.18752125167849 115.48179475459335 H 0.0 **** 0.06
36284 H 83.83949838300362 68.60456720044084 117.20713187622795 H 0.0 **** 0.06
36285 H 83.4176375704514 66.9434692561556 116.72590227396253 H 0.0 **** 0.06
36286 C 77.00749736639492 84.19715353062735 106.828717498087 C 0.0 **** -0.24
36287 H 77.72461313048923 83.43585332050912 106.520490200696 H 0.0 **** 0.06
36288 H 77.08482103875878 84.35373884069267 107.90476729485545 H 0.0 **** 0.06
36289 H 75.998940661821 83.86731116195745 106.58008436801418 H 0.0 **** 0.06
36290 H 77.22306483536414 85.13037889752196 106.30917721513106 H 0.0 **** 0.06
36291 C 8.916291517696823 133.2231441567824 117.41430449967956 C 0.0 **** -0.24
36292 H 9.736460802381469 133.70439303345708 117.94686239835653 H 0.0 **** 0.06
36293 H 7.967826341975137 133.5289697674857 117.85463110252994 H 0.0 **** 0.06
36294 H 9.02116554237529 132.14002333377834 117.48984167462964 H 0.0 **** 0.06
36295 H 8.942818571185857 133.51756942716523 116.36456729699074 H 0.0 **** 0.06
36296 C 61.80531028786861 13.339357872923728 55.55726773491094 C 0.0 **** -0.24
36297 H 62.7672777050949 12.827878377491373 55.515452601357154 H 0.0 **** 0.06
36298 H 61.24559476792605 12.988738975282814 56.425365117841594 H 0.0 **** 0.06
36299 H 61.24031428327494 13.127420649944256 54.649610759815374 H 0.0 **** 0.06
36300 H 61.969860610364094 14.413723216503996 55.640263924332814 H 0.0 **** 0.06
36301 C 111.07024301639365 132.41919917913953 85.86878081510133 C 0.0 **** -0.24
36302 H 110.27271494122954 132.02374758855794 85.24046319669516 H 0.0 **** 0.06
36303 H 110.63660908700317 132.99163473703547 86.68945021317694 H 0.0 **** 0.06
36304 H 111.71499156131 133.06759453765275 85.27457555976657 H 0.0 **** 0.06
36305 H 111.65867370779546 131.59434105581056 86.27144629797151 H 0.0 **** 0.06
36306 C 100.96192549238697 33.68096805528799 9.524361696603677 C 0.0 **** -0.24
36307 H 102.04835636991827 33.73891469680319 9.59588252921425 H 0.0 **** 0.06
36308 H 100.68523728309805 32.863832455287536 8.857598513690533 H 0.0 **** 0.06
36309 H 100.57306159739409 34.61960831137017 9.129362441988917 H 0.0 **** 0.06
36310 H 100.54237810321588 33.50124935854731 10.513528102388705 H 0.0 **** 0.06
36311 C 113.15042254240353 67.13394717907556 88.58809143414123 C 0.0 **** -0.24
36312 H 113.21827994097555 68.18329194252459 88.2980309501461 H 0.0 **** 0.06
36313 H 112.11866874091953 66.8947949748661 88.84519329078492 H 0.0 **** 0.06
36314 H 113.79133354899517 66.95390661966042 89.45088139502663 H 0.0 **** 0.06
36315 H 113.47374983389946 66.50659092504952 87.75800070921653 H 0.0 **** 0.06
36316 C 71.04782110756663 101.17291872338306 79.61175104181582 C 0.0 **** -0.24
36317 H 70.59153995528797 100.37256451706351 80.19471737002948 H 0.0 **** 0.06
36318 H 72.00483801709036 100.83285963004151 79.21485111269595 H 0.0 **** 0.06
36319 H 71.20716074051491 102.04110045327404 80.25152947454347 H 0.0 **** 0.06
36320 H 70.38845905143683 101.44377552131756 78.78751909208762 H 0.0 **** 0.06
36321 C 114.48178292151155 35.53468032735303 64.64163549409392 C 0.0 **** -0.24
36322 H 114.779588338129 34.561029509177814 65.03121872843207 H 0.0 **** 0.06
36323 H 114.97045523454199 36.32105316831661 65.21824390498631 H 0.0 **** 0.06
36324 H 113.40053637574627 35.64312177451619 64.72272427536683 H 0.0 **** 0.06
36325 H 114.77809678452124 35.61299523550949 63.59588509126155 H 0.0 **** 0.06
36326 C 16.47496072862404 41.76598792062771 18.452935330161807 C 0.0 **** -0.24
36327 H 15.419193933432723 41.65060207576067 18.697213083723625 H 0.0 **** 0.06
36328 H 16.827128693680848 40.87218569248455 17.937136529633563 H 0.0 **** 0.06
36329 H 17.046396060576058 41.905515884224656 19.370623007507277 H 0.0 **** 0.06
36330 H 16.605764253667402 42.6340192142485 17.807474152763177 H 0.0 **** 0.06
36331 C 111.70884325407769 59.75996992832991 4.1616263684265675 C 0.0 **** -0.24
36332 H 112.75860363617471 59.68627301830202 4.446298081691793 H 0.0 **** 0.06
36333 H 111.19999053805441 60.45296349933173 4.832193978448117 H 0.0 **** 0.06
36334 H 111.2435422316646 58.77685995802989 4.231724859278444 H 0.0 **** 0.06
36335 H 111.63492050912976 60.125233531262225 3.137318802636571 H 0.0 **** 0.06
36336 C 17.49464661563951 78.67649730946725 85.25926604278169 C 0.0 **** -0.24
36337 H 18.482716004091458 78.41943816822385 84.87654084437338 H 0.0 **** 0.06
36338 H 16.84629123103906 77.80189905535826 85.20763035652331 H 0.0 **** 0.06
36339 H 17.06960871681605 79.47978094394489 84.65610742014799 H 0.0 **** 0.06
36340 H 17.58038331933284 79.00669648772225 86.29444079903647 H 0.0 **** 0.06
36341 C 50.298899777514904 125.29382989271849 41.76853994265934 C 0.0 **** -0.24
36342 H 51.24440251191666 125.35415351917553 42.306862029200445 H 0.0 **** 0.06
36343 H 49.47733349456459 125.23533053542786 42.483488749655756 H 0.0 **** 0.06
36344 H 50.29609970423209 124.4057705251405 41.13699995724458 H 0.0 **** 0.06
36345 H 50.17752592149709 126.18225069135895 41.14721714054418 H 0.0 **** 0.06
36346 C 54.352714535976304 51.73036506314213 1.5359696497862103 C 0.0 **** -0.24
36347 H 53.493368654826185 51.08560130358866 1.3520527963030986 H 0.0 **** 0.06
36348 H 55.136561248335425 51.506410214334565 0.8127617987280189 H 0.0 **** 0.06
36349 H 54.72725153834131 51.55606100941378 2.5444656463210436 H 0.0 **** 0.06
36350 H 54.0525582917831 52.77381339975524 1.4353520497587624 H 0.0 **** 0.06
36351 C 31.586820537950246 42.169591809656424 40.44566234224418 C 0.0 **** -0.24
36352 H 32.58178730345893 41.78847378702983 40.218739039340576 H 0.0 **** 0.06
36353 H 30.994969410186755 41.38402328010744 40.91545313621778 H 0.0 **** 0.06
36354 H 31.101281051610343 42.4890513437432 39.522698015955044 H 0.0 **** 0.06
36355 H 31.669493551513668 43.01817454913518 41.12544290380873 H 0.0 **** 0.06
36356 C 36.13534816031088 53.15259276313763 109.89988658174877 C 0.0 **** -0.24
36357 H 36.258589093656354 54.16651294576768 109.51865618079029 H 0.0 **** 0.06
36358 H 35.1316269199142 52.796783732908196 109.66721584532925 H 0.0 **** 0.06
36359 H 36.28109226278053 53.15157076178919 110.9802613732731 H 0.0 **** 0.06
36360 H 36.8714716348677 52.49751924412145 109.43329896449384 H 0.0 **** 0.06
36361 C 57.91025449473307 9.379768683991458 64.75500990170327 C 0.0 **** -0.24
36362 H 58.42658392286769 10.193319627928751 64.24536409368129 H 0.0 **** 0.06
36363 H 56.89278558328911 9.299619668625922 64.37197697316681 H 0.0 **** 0.06
36364 H 57.880427419514774 9.582536199135841 65.82599579541619 H 0.0 **** 0.06
36365 H 58.44102355431983 8.444855139421659 64.57732226387509 H 0.0 **** 0.06
36366 C 26.7186942415247 67.4839076746863 120.8860041880765 C 0.0 **** -0.24
36367 H 26.940169737345087 66.74648814658717 120.11526425173071 H 0.0 **** 0.06
36368 H 25.673132616678714 67.39474125527171 121.18443575120921 H 0.0 **** 0.06
36369 H 26.90077885135011 68.48467696150028 120.49516526856988 H 0.0 **** 0.06
36370 H 27.359492359210492 67.30900553011351 121.75057813042409 H 0.0 **** 0.06
36371 C 102.54414853800517 102.26319479609444 84.85525972865793 C 0.0 **** -0.24
36372 H 103.29996851039162 101.85765676447723 85.5273788451455 H 0.0 **** 0.06
36373 H 102.04320065393539 101.44552012216757 84.33533234083819 H 0.0 **** 0.06
36374 H 103.02205997533723 102.91916503284882 84.12671265940457 H 0.0 **** 0.06
36375 H 101.81332965666854 102.83123172305143 85.43038653880984 H 0.0 **** 0.06
36376 C 8.91911802861037 66.78119366791731 57.64766011883819 C 0.0 **** -0.24
36377 H 8.280935831379963 66.04499556870405 58.13568662705694 H 0.0 **** 0.06
36378 H 9.002794885147068 67.66559987660719 58.27962762173843 H 0.0 **** 0.06
36379 H 8.48335397076778 67.05979525122223 56.68841464188023 H 0.0 **** 0.06
36380 H 9.909387427146925 66.35438397513565 57.4869115846773 H 0.0 **** 0.06
36381 C 4.62708455659066 123.88871539414473 133.08301175741394 C 0.0 **** -0.24
36382 H 4.606686775218151 123.10307021312023 133.8377790102855 H 0.0 **** 0.06
36383 H 5.422660920374142 124.59712876941222 133.31731471197185 H 0.0 **** 0.06
36384 H 3.668229052061065 124.40815596233683 133.07292533007245 H 0.0 **** 0.06
36385 H 4.810761478709111 123.44650663170955 132.10402797732615 H 0.0 **** 0.06
36386 C 28.06841058134104 31.15715004783425 134.48176555814007 C 0.0 **** -0.24
36387 H 27.836532319874877 32.00604371869911 135.12428172770126 H 0.0 **** 0.06
36388 H 27.55393526255513 30.269920300754755 134.85313015194805 H 0.0 **** 0.06
36389 H 29.144214974547957 30.98054670305327 134.48540548786872 H 0.0 **** 0.06
36390 H 27.73803282543257 31.37017159603868 133.46492513884687 H 0.0 **** 0.06
36391 C 116.35865444241733 127.80507810621658 74.49004984560327 C 0.0 **** -0.24
36392 H 115.97517308819505 128.2210273642821 73.55841025654826 H 0.0 **** 0.06
36393 H 115.81314945660972 126.89137865303609 74.73030549326475 H 0.0 **** 0.06
36394 H 116.22570310102205 128.52957958422348 75.2929929156042 H 0.0 **** 0.06
36395 H 117.41858980283789 127.57718417705729 74.37657095471332 H 0.0 **** 0.06
36396 C 5.779027951118678 125.0222220777116 108.98722924368417 C 0.0 **** -0.24
36397 H 6.2083112571808385 124.29390578029148 109.67666043378563 H 0.0 **** 0.06
36398 H 5.229900305024046 125.77578504316728 109.55143375425345 H 0.0 **** 0.06
36399 H 5.100503114809044 124.51551554560695 108.30041294074667 H 0.0 **** 0.06
36400 H 6.577390569676936 125.5018933442197 108.42175189941207 H 0.0 **** 0.06
36401 C 82.8436129359003 33.89915865332405 77.82818657473639 C 0.0 **** -0.24
36402 H 82.73634670793913 32.82432431630133 77.68491714672213 H 0.0 **** 0.06
36403 H 83.07305202264726 34.37208440072901 76.87195641202045 H 0.0 **** 0.06
36404 H 83.6524100826806 34.09347469273411 78.53297203051402 H 0.0 **** 0.06
36405 H 81.91308988160358 34.30807870069967 78.22115766133516 H 0.0 **** 0.06
36406 C 111.4503598575665 45.36367669651503 6.674458309104239 C 0.0 **** -0.24
36407 H 112.1308156623744 45.15392481403846 5.8491195229846085 H 0.0 **** 0.06
36408 H 110.42928003272206 45.41667502815403 6.297626518871368 H 0.0 **** 0.06
36409 H 111.7202106939387 46.314507279723614 7.13400459513241 H 0.0 **** 0.06
36410 H 111.5237085783356 44.56836722527275 7.416161665029449 H 0.0 **** 0.06
36411 C 13.984414067673349 46.697762637597975 35.076411383689276 C 0.0 **** -0.24
36412 H 14.930439534435095 46.20733161553778 35.306878981938254 H 0.0 **** 0.06
36413 H 13.889071134417577 46.81069596013384 33.996353114895285 H 0.0 **** 0.06
36414 H 13.960438455643597 47.678797790323586 35.54897373765442 H 0.0 **** 0.06
36415 H 13.1602900053079 46.09218541759071 35.45302896920967 H 0.0 **** 0.06
36416 C 79.20457852618517 54.308341522831654 74.88259394180204 C 0.0 **** -0.24
36417 H 80.03132341636041 54.632207916064914 74.25171564209762 H 0.0 **** 0.06
36418 H 78.89576787584929 53.305063571219534 74.58944656429117 H 0.0 **** 0.06
36419 H 78.36670753331364 54.995434747032334 74.76388350534774 H 0.0 **** 0.06
36420 H 79.52333933038722 54.3003812137984 75.92459548416554 H 0.0 **** 0.06
36421 C 74.44683567022585 72.6831052062308 69.52341951335734 C 0.0 **** -0.24
36422 H 74.74739728469578 71.77633027973701 70.04759217086023 H 0.0 **** 0.06
36423 H 73.4975504453285 72.51122897553338 69.01373108450314 H 0.0 **** 0.06
36424 H 75.20937311077193 72.94858348151888 68.790815920447 H 0.0 **** 0.06
36425 H 74.33233192459068 73.49652844445404 70.24032998102057 H 0.0 **** 0.06
36426 C 101.9030197760807 84.6686700137536 68.83966735898639 C 0.0 **** -0.24
36427 H 101.85105283214995 85.2323485280964 69.7718642761425 H 0.0 **** 0.06
36428 H 101.6458495039987 83.62702488979926 69.03216139517563 H 0.0 **** 0.06
36429 H 102.9142902590369 84.72580394360392 68.43659813432939 H 0.0 **** 0.06
36430 H 101.20082568042577 85.08999339838158 68.12161720013609 H 0.0 **** 0.06
36431 C 16.78711919077412 80.4992998499697 11.10953932699789 C 0.0 **** -0.24
36432 H 16.03399989872112 80.19729513568583 10.381589771208212 H 0.0 **** 0.06
36433 H 17.771275361237542 80.48544163668794 10.640236987866217 H 0.0 **** 0.06
36434 H 16.775953598793855 79.8071741049443 11.951641074736585 H 0.0 **** 0.06
36435 H 16.567602545138335 81.50626914121239 11.463775590015928 H 0.0 **** 0.06
36436 C 90.3469262568886 8.057742073420059 108.95958418232132 C 0.0 **** -0.24
36437 H 90.18430247217375 7.926789086097898 110.02965609903498 H 0.0 **** 0.06
36438 H 90.14208624062974 9.092937287972603 108.68643129120349 H 0.0 **** 0.06
36439 H 89.67883443369465 7.3963539367340445 108.40743371758572 H 0.0 **** 0.06
36440 H 91.38192884893226 7.814638695327886 108.71718886592129 H 0.0 **** 0.06
36441 C 114.34842922395868 99.77682616058092 32.486189865701306 C 0.0 **** -0.24
36442 H 115.23582736470024 100.29109728044743 32.856462550272596 H 0.0 **** 0.06
36443 H 113.77102533976893 99.39713512613504 33.32886863878173 H 0.0 **** 0.06
36444 H 114.65009791118644 98.94728795042082 31.847555094163738 H 0.0 **** 0.06
36445 H 113.73881421191103 100.47418838526008 31.91170964804158 H 0.0 **** 0.06
36446 C 64.09030433337756 102.50015538069384 61.975701322569535 C 0.0 **** -0.24
36447 H 65.01630483448241 102.35598506997306 61.41829563978949 H 0.0 **** 0.06
36448 H 64.28671931801756 103.11680119979503 62.85281599703313 H 0.0 **** 0.06
36449 H 63.700966257498806 101.53156560986778 62.2899158956219 H 0.0 **** 0.06
36450 H 63.35802797595301 102.99724536570334 61.339056232970094 H 0.0 **** 0.06
36451 C 27.928002413068327 18.494212177621023 21.943511408210895 C 0.0 **** -0.24
36452 H 28.28606060232613 18.268460993443085 22.94785735831465 H 0.0 **** 0.06
36453 H 27.387467918362034 17.632855848335012 21.549481136882974 H 0.0 **** 0.06
36454 H 28.776204325494348 18.717907014900504 21.296807318779543 H 0.0 **** 0.06
36455 H 27.261220275502268 19.35584136680366 21.981204884117403 H 0.0 **** 0.06
36456 C 132.84362605150883 63.405410587792176 37.62073914638617 C 0.0 **** -0.24
36457 H 132.9418140387014 64.42628728231685 37.99120641986656 H 0.0 **** 0.06
36458 H 132.83509276545783 63.41471833779505 36.53072785328638 H 0.0 **** 0.06
36459 H 131.91208596186496 62.97453438766895 37.98887480406546 H 0.0 **** 0.06
36460 H 133.68477044190843 62.809701154521875 37.972854706377774 H 0.0 **** 0.06
36461 C 131.78782295780655 108.37516877887862 65.45444487012853 C 0.0 **** -0.24
36462 H 132.53594358929251 108.6234241207506 66.20783315329348 H 0.0 **** 0.06
36463 H 132.24763628072776 107.77112131347883 64.67231545244248 H 0.0 **** 0.06
36464 H 131.39072836476194 109.29299084182804 65.02088102848984 H 0.0 **** 0.06
36465 H 130.97775202062462 107.81304339716746 65.91981593149822 H 0.0 **** 0.06
36466 C 110.72063620319261 10.702305786310149 66.2240486797278 C 0.0 **** -0.24
36467 H 110.55586114646223 11.770183975326347 66.36713400619927 H 0.0 **** 0.06
36468 H 110.65969105753598 10.192827852105097 67.18671740477251 H 0.0 **** 0.06
36469 H 111.70767823897904 10.54230020806284 65.79029380484346 H 0.0 **** 0.06
36470 H 109.96025454808975 10.303394243864886 65.55297091892174 H 0.0 **** 0.06
36471 C 93.87566058298565 91.7027197540857 42.17549998461932 C 0.0 **** -0.24
36472 H 93.52302582186572 90.9633238420709 41.45691217436483 H 0.0 **** 0.06
36473 H 93.2143583144188 92.57031999327023 42.157856256851616 H 0.0 **** 0.06
36474 H 94.88772025613744 92.01210787277074 41.912018804350154 H 0.0 **** 0.06
36475 H 93.87760775016181 91.2673159699309 43.174114903057685 H 0.0 **** 0.06
36476 C 83.71254458804748 84.8968895908786 11.666661249973515 C 0.0 **** -0.24
36477 H 83.74261458317943 84.69694560815587 12.7374297729109 H 0.0 **** 0.06
36478 H 84.14613304172963 85.87712933580848 11.467362028459888 H 0.0 **** 0.06
36479 H 82.67832906237442 84.88056657280339 11.322966818298966 H 0.0 **** 0.06
36480 H 84.28350722525272 84.13289546527612 11.137972536701056 H 0.0 **** 0.06
36481 C 0.5804053373569218 93.34959591952162 1.330578458831038 C 0.0 **** -0.24
36482 H -0.3081833167702257 93.97467445612733 1.4115848276871077 H 0.0 **** 0.06
36483 H 1.3317464217022348 93.86095218200813 0.7288597472550578 H 0.0 **** 0.06
36484 H 0.31755828222583204 92.40387948213731 0.8577488297934082 H 0.0 **** 0.06
36485 H 0.9809693777866073 93.1585962391149 2.327070163793536 H 0.0 **** 0.06
36486 C 75.38260549308347 63.8860991913418 54.686879726183534 C 0.0 **** -0.24
36487 H 76.41510119242335 63.68332948503152 54.40375766296398 H 0.0 **** 0.06
36488 H 75.36789432809366 64.47796001265274 55.60256823944441 H 0.0 **** 0.06
36489 H 74.86117123147656 62.944258322104986 54.854787753427956 H 0.0 **** 0.06
36490 H 74.88826932197787 64.43929035429093 53.88858446207199 H 0.0 **** 0.06
36491 C 51.95196041917082 36.53277050609017 79.62378339157135 C 0.0 **** -0.24
36492 H 51.761812597714325 37.125929441197485 80.51819400148919 H 0.0 **** 0.06
36493 H 52.934706181227696 36.0656909682296 79.69920623711624 H 0.0 **** 0.06
36494 H 51.922097152137255 37.17770376444844 78.74655237361014 H 0.0 **** 0.06
36495 H 51.18841815375484 35.759434667319056 79.53289881101976 H 0.0 **** 0.06
36496 C 130.9570534250262 86.15585345629964 23.186449683939628 C 0.0 **** -0.24
36497 H 131.82451607675793 86.78662965021208 22.990171718726643 H 0.0 **** 0.06
36498 H 130.79083720633136 85.49390498998049 22.336015969925967 H 0.0 **** 0.06
36499 H 130.07868163352214 86.78320453466387 23.336184968850127 H 0.0 **** 0.06
36500 H 131.1357987800955 85.56011337096237 24.080939403298025 H 0.0 **** 0.06
36501 C 86.94385496310113 32.854583138663656 87.18414207935648 C 0.0 **** -0.24
36502 H 87.58393997579944 32.44034644873497 86.40563570861796 H 0.0 **** 0.06
36503 H 87.56169950753176 33.23625133740045 87.99666256721183 H 0.0 **** 0.06
36504 H 86.28332525955369 32.07554210524722 87.56374661546171 H 0.0 **** 0.06
36505 H 86.3462658985909 33.66715628437731 86.76950571975108 H 0.0 **** 0.06
36506 C 99.51274215990478 86.00388378262222 86.79613515016212 C 0.0 **** -0.24
36507 H 99.14994600997485 86.91352222033454 86.31733149731292 H 0.0 **** 0.06
36508 H 99.11919580308118 85.13444195029894 86.26979570173366 H 0.0 **** 0.06
36509 H 99.17856485442074 85.9825552410105 87.83356933959693 H 0.0 **** 0.06
36510 H 100.60194541262996 85.98653332492798 86.76482578220894 H 0.0 **** 0.06
36511 C 97.69452031324784 73.53968217576535 9.572926934812898 C 0.0 **** -0.24
36512 H 97.3272355414353 72.73847352041494 8.931004287051962 H 0.0 **** 0.06
36513 H 98.40343736939143 73.13206334936407 10.2928682602776 H 0.0 **** 0.06
36514 H 96.85682527763925 73.99187848886942 10.104162850935438 H 0.0 **** 0.06
36515 H 98.18838389023993 74.2959306655824 8.963540351949462 H 0.0 **** 0.06
36516 C 72.99469928230792 70.4372626760156 63.92112739321587 C 0.0 **** -0.24
36517 H 73.0417353127653 71.41255941723463 64.40673731141689 H 0.0 **** 0.06
36518 H 72.25025478330832 69.818273239329 64.4212628730902 H 0.0 **** 0.06
36519 H 73.97016723359309 69.95523884528289 63.98197425495668 H 0.0 **** 0.06
36520 H 72.7180243576463 70.56580836740913 62.87481671233297 H 0.0 **** 0.06
36521 C 27.91934896706222 135.6351801777505 46.531083321772144 C 0.0 **** -0.24
36522 H 27.56403102209773 136.29319933868328 45.73849012651581 H 0.0 **** 0.06
36523 H 27.070556946963187 135.12067836011084 46.98291194418675 H 0.0 **** 0.06
36524 H 28.431912562237756 136.22514635327886 47.290123821263705 H 0.0 **** 0.06
36525 H 28.60855254374799 134.9020057599877 46.11216237215774 H 0.0 **** 0.06
36526 C 83.27232504931789 5.998161160855009 1.441942535053812 C 0.0 **** -0.24
36527 H 83.32804132550591 4.939434066170762 1.1899531111538977 H 0.0 **** 0.06
36528 H 82.72792606117876 6.119603334880743 2.3779909125288157 H 0.0 **** 0.06
36529 H 82.75441919094736 6.533595545710355 0.6468403045469984 H 0.0 **** 0.06
36530 H 84.28008726399092 6.39842069578782 1.5519410599101207 H 0.0 **** 0.06
36531 C 119.21591771686522 1.3479785749704263 52.631702603814915 C 0.0 **** -0.24
36532 H 119.93300009764829 0.7198339954464075 52.10271174237931 H 0.0 **** 0.06
36533 H 118.69035214198615 1.980479246073429 51.91526987383236 H 0.0 **** 0.06
36534 H 119.74324613404622 1.9738701226312685 53.35101723064446 H 0.0 **** 0.06
36535 H 118.49802647283036 0.7176741252757495 53.15496778330919 H 0.0 **** 0.06
36536 C 36.282690758195486 109.78192443573568 89.79213918604935 C 0.0 **** -0.24
36537 H 35.71722435394372 110.58999860221184 89.3279216130453 H 0.0 **** 0.06
36538 H 35.715708320368606 108.85406122744986 89.72074720014763 H 0.0 **** 0.06
36539 H 36.46027248716564 110.01966464436879 90.84091579681211 H 0.0 **** 0.06
36540 H 37.23714762781873 109.66638490905467 89.27909850739019 H 0.0 **** 0.06
36541 C 131.49184567816025 43.753172868361375 45.08352226151973 C 0.0 **** -0.24
36542 H 130.43936079688123 43.49834877462018 44.966461434755274 H 0.0 **** 0.06
36543 H 131.6568299953121 44.77838798292611 44.750544402154105 H 0.0 **** 0.06
36544 H 132.09893128975418 43.07391056598749 44.48487891453462 H 0.0 **** 0.06
36545 H 131.7734571517927 43.66270189731162 46.132572802857396 H 0.0 **** 0.06
36546 C 87.9969413709477 18.087259534662508 12.181562044083591 C 0.0 **** -0.24
36547 H 86.97927212112711 18.38565484979091 11.929558869367781 H 0.0 **** 0.06
36548 H 88.62895215986083 18.973746311899163 12.249183787682341 H 0.0 **** 0.06
36549 H 88.38327018215307 17.423286627026926 11.409012346216628 H 0.0 **** 0.06
36550 H 87.99623533222302 17.56803133307065 13.140274548969842 H 0.0 **** 0.06
36551 C 111.12702773754643 130.5491338535927 27.94426824817677 C 0.0 **** -0.24
36552 H 111.98592148654805 131.0280467048301 27.473524053998403 H 0.0 **** 0.06
36553 H 111.09535622551223 129.49723705195862 27.658416631418305 H 0.0 **** 0.06
36554 H 110.21213291052075 131.0425633072466 27.61701319724594 H 0.0 **** 0.06
36555 H 111.2153381024907 130.62888927905658 29.02737552602747 H 0.0 **** 0.06
36556 C 110.45614779603721 35.092056136048484 59.77601190979239 C 0.0 **** -0.24
36557 H 109.92183903138431 35.83035510415672 60.3734948085247 H 0.0 **** 0.06
36558 H 109.73773204734059 34.46584156858975 59.24571458444565 H 0.0 **** 0.06
36559 H 111.06797553593319 34.47018812217891 60.42928600141141 H 0.0 **** 0.06
36560 H 111.09581993652577 35.60152267410871 59.05618456601762 H 0.0 **** 0.06
36561 C 31.934149594968034 51.07892933338512 2.0350376362847946 C 0.0 **** -0.24
36562 H 32.85821067405252 50.528435756010026 1.86081947618176 H 0.0 **** 0.06
36563 H 31.230166827614852 50.445277496144726 2.5751623519873448 H 0.0 **** 0.06
36564 H 31.4995370290454 51.37091754139064 1.0789728526364222 H 0.0 **** 0.06
36565 H 32.14864030654774 51.97032599473668 2.6240043243034314 H 0.0 **** 0.06
36566 C 90.10691457751676 56.00460177080015 104.65774923648443 C 0.0 **** -0.24
36567 H 90.3718121740767 55.98855611356751 105.71476193442429 H 0.0 **** 0.06
36568 H 90.83854276401973 56.59868416324605 104.10939496523821 H 0.0 **** 0.06
36569 H 89.11706198742303 56.4437026876418 104.53781489793273 H 0.0 **** 0.06
36570 H 90.10119455520356 54.985269417134674 104.26954958005373 H 0.0 **** 0.06
36571 C 70.60929234963947 53.709283583150125 34.59496703599508 C 0.0 **** -0.24
36572 H 71.40122779393943 53.776277510976655 35.34211240989865 H 0.0 **** 0.06
36573 H 71.04644074523628 53.76391175974112 33.5969679396599 H 0.0 **** 0.06
36574 H 69.91020407733771 54.5344012635569 34.732358729991496 H 0.0 **** 0.06
36575 H 70.08205234838505 52.762198814025794 34.7095640785691 H 0.0 **** 0.06
36576 C 2.277915147712662 14.099725086518106 73.82802555937218 C 0.0 **** -0.24
36577 H 1.6308291267379786 14.42083326093882 74.644033687383 H 0.0 **** 0.06
36578 H 3.036970855118568 13.418004685180506 74.21317857122388 H 0.0 **** 0.06
36579 H 2.7617869774648796 14.970298012185538 73.38499970852186 H 0.0 **** 0.06
36580 H 1.6820624323292463 13.589671925643984 73.07088594685379 H 0.0 **** 0.06
36581 C 47.80498648851227 65.39186521709686 85.12088709042652 C 0.0 **** -0.24
36582 H 48.44341936182295 65.42332472041244 86.00392833474058 H 0.0 **** 0.06
36583 H 48.35509203436291 64.9499398982817 84.29094618975387 H 0.0 **** 0.06
36584 H 47.49975730717537 66.4041677868072 84.85756470811623 H 0.0 **** 0.06
36585 H 46.92088510510945 64.79003718673843 85.33320021996136 H 0.0 **** 0.06
36586 C 94.51374475163828 75.34766740277547 131.27670542422658 C 0.0 **** -0.24
36587 H 94.12641037404856 75.73436728781861 132.2191831841893 H 0.0 **** 0.06
36588 H 94.52219036133664 76.14503150723598 130.53350947226303 H 0.0 **** 0.06
36589 H 93.87823019339652 74.53316521971146 130.93008391429012 H 0.0 **** 0.06
36590 H 95.52897791430996 74.97909745546158 131.42557082999522 H 0.0 **** 0.06
36591 C 81.05282141381161 65.36588212718368 82.82840208016717 C 0.0 **** -0.24
36592 H 81.25880434188934 65.80738836117769 83.8034914827449 H 0.0 **** 0.06
36593 H 81.9066572603056 64.76458894962667 82.51419676533487 H 0.0 **** 0.06
36594 H 80.87682081214268 66.15697465280198 82.10050620985984 H 0.0 **** 0.06
36595 H 80.16822107527707 64.73186749619435 82.89766105504503 H 0.0 **** 0.06
36596 C 47.59191817051334 25.70938178027299 51.60440162175138 C 0.0 **** -0.24
36597 H 46.549100796028426 26.027498236305448 51.57844082280231 H 0.0 **** 0.06
36598 H 48.133759200063764 26.30127770419758 52.342435225359 H 0.0 **** 0.06
36599 H 48.04046145087028 25.85369597404081 50.62143345973578 H 0.0 **** 0.06
36600 H 47.6427785027218 24.654506073907598 51.87577143171774 H 0.0 **** 0.06
36601 C 73.38221396259559 90.89834954250074 76.40065498292948 C 0.0 **** -0.24
36602 H 72.87940865249232 89.93658710521672 76.29433027894369 H 0.0 **** 0.06
36603 H 72.63936043163255 91.68070806663724 76.55567054939665 H 0.0 **** 0.06
36604 H 73.95147698044224 91.11208803726541 75.49642685883035 H 0.0 **** 0.06
36605 H 74.05745488103787 90.86248900733926 77.2556109992266 H 0.0 **** 0.06
36606 C 51.029729812513835 63.957392332212734 85.1586523261307 C 0.0 **** -0.24
36607 H 50.677605031667895 62.93178601064676 85.04345718147059 H 0.0 **** 0.06
36608 H 50.51515460610413 64.42645167057573 85.99662888022829 H 0.0 **** 0.06
36609 H 50.823068383699336 64.5162421383566 84.24572350826881 H 0.0 **** 0.06
36610 H 52.10266406080851 63.95318870586921 85.34674916271112 H 0.0 **** 0.06
36611 C 6.660303364233581 56.07676743360119 35.231851128145365 C 0.0 **** -0.24
36612 H 6.774944937644129 56.91606370890257 34.54639646033388 H 0.0 **** 0.06
36613 H 7.302861737924282 55.25556182651633 34.910447545334875 H 0.0 **** 0.06
36614 H 5.622347113793101 55.74690111358001 35.23177939713611 H 0.0 **** 0.06
36615 H 6.943524110673987 56.38793750657243 36.23718104365412 H 0.0 **** 0.06
36616 C 1.0128707461649853 34.10329468028701 23.426296511519105 C 0.0 **** -0.24
36617 H 1.6325440531874875 33.52825627052093 24.115064924243363 H 0.0 **** 0.06
36618 H 0.07636705094737906 34.368173940756606 23.91608199634424 H 0.0 **** 0.06
36619 H 0.8036455501701596 33.50342928676238 22.539758042752865 H 0.0 **** 0.06
36620 H 1.5412735454561322 35.010711867689224 23.13511347776977 H 0.0 **** 0.06
36621 C 27.206182058715513 113.79139956001217 111.11367544314353 C 0.0 **** -0.24
36622 H 27.35103505369682 114.20290718223009 110.11456725643893 H 0.0 **** 0.06
36623 H 26.145107277999955 113.81466779337958 111.36576480716408 H 0.0 **** 0.06
36624 H 27.76410572575469 114.38723890985872 111.83549583416286 H 0.0 **** 0.06
36625 H 27.563570885015963 112.7623456500144 111.13755638642448 H 0.0 **** 0.06
36626 C 85.25533505670671 101.38237774122273 56.041709892582276 C 0.0 **** -0.24
36627 H 85.41463830191375 101.85915480469238 57.00898398994349 H 0.0 **** 0.06
36628 H 85.99144097491254 100.5901727989832 55.90253194402615 H 0.0 **** 0.06
36629 H 85.36306651127074 102.12316875540981 55.250003112291964 H 0.0 **** 0.06
36630 H 84.25258595167472 100.95653045565322 56.00768961552271 H 0.0 **** 0.06
36631 C 111.71528125921097 0.5528543581852432 73.9674462462051 C 0.0 **** -0.24
36632 H 111.28609393180736 0.12356066926486164 74.87300146157605 H 0.0 **** 0.06
36633 H 110.9132725533037 0.9086889062587602 73.31982836129737 H 0.0 **** 0.06
36634 H 112.29623106891407 -0.2069871972147439 73.44458661140214 H 0.0 **** 0.06
36635 H 112.3650850636273 1.3870309990868464 74.23338692126032 H 0.0 **** 0.06
36636 C 76.23210776189642 97.77598215430028 62.492380667563765 C 0.0 **** -0.24
36637 H 75.6721725847819 96.85547965408759 62.32894021518081 H 0.0 **** 0.06
36638 H 77.1811544178219 97.72314423918665 61.95746503720409 H 0.0 **** 0.06
36639 H 76.422305306648 97.90094457445491 63.55815612667152 H 0.0 **** 0.06
36640 H 75.65423849684451 98.62299528014321 62.123524452576476 H 0.0 **** 0.06
36641 C 116.01731099021544 103.95896302152806 79.87933785068483 C 0.0 **** -0.24
36642 H 116.14120302942919 103.90297059887241 80.96112882095849 H 0.0 **** 0.06
36643 H 116.92581556847472 103.60518374744753 79.39092945209865 H 0.0 **** 0.06
36644 H 115.82660403930669 104.99172749550031 79.58907172898472 H 0.0 **** 0.06
36645 H 115.17617340069972 103.33434623126604 79.57797013472623 H 0.0 **** 0.06
36646 C 69.31278029363078 2.8533327760339944 27.83945178012074 C 0.0 **** -0.24
36647 H 68.68135978696861 2.954524971135868 26.95638135538144 H 0.0 **** 0.06
36648 H 69.00557819116197 3.5822181633280934 28.590229429249547 H 0.0 **** 0.06
36649 H 70.35196747015614 3.0311328212224 27.56469703960414 H 0.0 **** 0.06
36650 H 69.21074022961712 1.8473795627305662 28.246153149631084 H 0.0 **** 0.06
36651 C 16.215045842019606 2.6833431525478773 112.50980895168789 C 0.0 **** -0.24
36652 H 16.94148990080396 2.8212435170599974 113.31099969419225 H 0.0 **** 0.06
36653 H 15.221087510698311 2.94422235854978 112.87337592141208 H 0.0 **** 0.06
36654 H 16.22424077855328 1.6425098074676896 112.18719085720537 H 0.0 **** 0.06
36655 H 16.47541773820089 3.32705614506591 111.66967794100049 H 0.0 **** 0.06
36656 C 122.35137593689478 46.565375949336726 136.22506604457197 C 0.0 **** -0.24
36657 H 121.40746354895114 47.05367023693293 136.46606838019662 H 0.0 **** 0.06
36658 H 123.1299124319072 46.92770787805193 136.89619758769524 H 0.0 **** 0.06
36659 H 122.62435134188465 46.79289952084201 135.19400175290215 H 0.0 **** 0.06
36660 H 122.24225555847528 45.487016203356944 136.3420877508215 H 0.0 **** 0.06
36661 C 86.73744203122331 111.23309011296286 66.6428371270277 C 0.0 **** -0.24
36662 H 87.42754521787803 112.07496271012607 66.61255376348952 H 0.0 **** 0.06
36663 H 86.93553137648867 110.57035375064237 65.79999300050349 H 0.0 **** 0.06
36664 H 85.71314809334362 111.60050776099513 66.58378425132366 H 0.0 **** 0.06
36665 H 86.87246611500586 110.68523015338187 67.57538311501017 H 0.0 **** 0.06
36666 C 33.36348658887718 31.49094191557174 82.99068993696426 C 0.0 **** -0.24
36667 H 34.06340029407835 30.656841133332108 82.93550137364056 H 0.0 **** 0.06
36668 H 32.59017355181257 31.266767332750163 83.72662325368745 H 0.0 **** 0.06
36669 H 32.903846479614174 31.64416788476464 82.01514406055134 H 0.0 **** 0.06
36670 H 33.89654741668588 32.394004552110374 83.28773889162022 H 0.0 **** 0.06
36671 C 87.25100421528954 45.288309280581814 76.73441523868433 C 0.0 **** -0.24
36672 H 87.25589182970535 44.99748345224853 75.68388703069809 H 0.0 **** 0.06
36673 H 86.28230717454322 45.05083492126036 77.17207829517474 H 0.0 **** 0.06
36674 H 87.43425362746831 46.36055566463972 76.8143369489801 H 0.0 **** 0.06
36675 H 88.0336967500787 44.74570636120106 77.26459306757931 H 0.0 **** 0.06
36676 C 36.72801733030862 38.682054026518955 12.65118672163652 C 0.0 **** -0.24
36677 H 35.99531591244035 38.42596072042272 13.416655810136717 H 0.0 **** 0.06
36678 H 37.72579788755362 38.68771329521505 13.090406499304493 H 0.0 **** 0.06
36679 H 36.50183511268076 39.66906203758751 12.247491462652988 H 0.0 **** 0.06
36680 H 36.68810439908485 37.94418231407107 11.849660443965718 H 0.0 **** 0.06
36681 C 102.12513380301456 28.719836704886205 93.99551126145758 C 0.0 **** -0.24
36682 H 101.34705656079439 29.135112234879443 93.35562215799436 H 0.0 **** 0.06
36683 H 102.69213003258722 29.53237285262989 94.45062265402703 H 0.0 **** 0.06
36684 H 102.79332528511631 28.100176852889973 93.39894878235646 H 0.0 **** 0.06
36685 H 101.66683828176224 28.113404667491494 94.77765033317925 H 0.0 **** 0.06
36686 C 2.133208097199379 6.606360100185725 26.227334952591214 C 0.0 **** -0.24
36687 H 2.3604491643374104 7.599067112950507 26.615019507017585 H 0.0 **** 0.06
36688 H 1.441353689820918 6.102363325027284 26.90164479048468 H 0.0 **** 0.06
36689 H 3.0539780805586574 6.027114691770464 26.151154214928653 H 0.0 **** 0.06
36690 H 1.6786840089781734 6.6967790919884465 25.24037175353314 H 0.0 **** 0.06
36691 C 124.62677757275719 10.964222085323073 115.9269488448636 C 0.0 **** -0.24
36692 H 124.33238282730377 11.659540150167729 115.14133726896574 H 0.0 **** 0.06
36693 H 125.67390023779012 11.125539036389213 116.18215073558144 H 0.0 **** 0.06
36694 H 124.49112195208198 9.941365886157385 115.5765037279416 H 0.0 **** 0.06
36695 H 124.0068836720194 11.131064712661331 116.80861159960364 H 0.0 **** 0.06
36696 C 82.78736703976044 15.512729644292477 110.87420176851577 C 0.0 **** -0.24
36697 H 83.83882298465232 15.767386059855994 111.00482542103234 H 0.0 **** 0.06
36698 H 82.16894705665653 16.362084308020428 111.16413698988089 H 0.0 **** 0.06
36699 H 82.5416535578588 14.65418838261212 111.49935363568414 H 0.0 **** 0.06
36700 H 82.60025801341669 15.266047819965593 109.82970988608949 H 0.0 **** 0.06
36701 C 116.09055130570493 16.767083676327736 123.10850099106864 C 0.0 **** -0.24
36702 H 115.27935905960683 17.495852577822284 123.12330464043481 H 0.0 **** 0.06
36703 H 116.61438076038542 16.788138731759908 124.06487304896098 H 0.0 **** 0.06
36704 H 116.78643620905277 17.01511842558896 122.30694810211446 H 0.0 **** 0.06
36705 H 115.68074822771575 15.772235501820141 122.93942253915816 H 0.0 **** 0.06
36706 C 83.86966650896042 102.17341772721544 26.824199758184875 C 0.0 **** -0.24
36707 H 83.73223266282808 103.16803633974732 27.24887708751973 H 0.0 **** 0.06
36708 H 84.01198702559127 102.25532807379527 25.746253717806326 H 0.0 **** 0.06
36709 H 82.98709190365037 101.56679828144156 27.02907780211848 H 0.0 **** 0.06
36710 H 84.74535766592578 101.7047847488228 27.27197105880788 H 0.0 **** 0.06
36711 C 27.984792258669785 26.0791866727252 82.08089792353181 C 0.0 **** -0.24
36712 H 27.654098967346968 25.079095508319085 81.80059688517139 H 0.0 **** 0.06
36713 H 28.958562716125755 26.277806110769006 81.63285608219766 H 0.0 **** 0.06
36714 H 28.06450168449858 26.14414707648774 83.16586225361357 H 0.0 **** 0.06
36715 H 27.263057525461363 26.81348619504473 81.72423392010444 H 0.0 **** 0.06
36716 C 76.46869378598417 38.20992664316023 36.405169116121215 C 0.0 **** -0.24
36717 H 75.71307021898228 38.87273588435286 35.98307314048489 H 0.0 **** 0.06
36718 H 77.16004291560792 38.78926402385443 37.017640887416434 H 0.0 **** 0.06
36719 H 77.017225558638 37.72479294380403 35.597309421631536 H 0.0 **** 0.06
36720 H 75.9845789312072 37.452837737827906 37.02124801722468 H 0.0 **** 0.06
36721 C 134.50142641346605 109.8448626228159 27.252172109989118 C 0.0 **** -0.24
36722 H 134.3043468454713 108.77810326214833 27.364369402654518 H 0.0 **** 0.06
36723 H 134.50105626919307 110.10393796924123 26.193909458054875 H 0.0 **** 0.06
36724 H 135.4728857766014 110.08180380545988 27.684933706919153 H 0.0 **** 0.06
36725 H 133.72574098661605 110.41298706651065 27.76663186949763 H 0.0 **** 0.06
36726 C 93.75667762215284 5.081325390617167 62.5940704789095 C 0.0 **** -0.24
36727 H 94.4199210744082 4.868053444512782 63.43248819820414 H 0.0 **** 0.06
36728 H 93.40999850675365 4.143678053574234 62.15877729180973 H 0.0 **** 0.06
36729 H 94.29783104593108 5.653086207600438 61.84015960643005 H 0.0 **** 0.06
36730 H 92.9017599209617 5.658724626047359 62.94460131156124 H 0.0 **** 0.06
36731 C 34.956907946323554 123.47908543354066 131.572633480125 C 0.0 **** -0.24
36732 H 35.31582432971095 124.04439634475574 130.71205768085346 H 0.0 **** 0.06
36733 H 35.73160287917639 122.78424852353311 131.89851312019724 H 0.0 **** 0.06
36734 H 34.06228311887182 122.92284903640751 131.29351606771306 H 0.0 **** 0.06
36735 H 34.71921403661577 124.16650693017425 132.38408546590804 H 0.0 **** 0.06
36736 C 44.668608452834974 71.52086753109586 11.81515830793839 C 0.0 **** -0.24
36737 H 43.71634074321406 71.59156248037607 11.288474772593304 H 0.0 **** 0.06
36738 H 44.55516463466151 71.91981407715184 12.82349567528695 H 0.0 **** 0.06
36739 H 45.42281616222215 72.09561211975142 11.27902270827775 H 0.0 **** 0.06
36740 H 44.97699221296111 70.47699212220937 11.86956999902668 H 0.0 **** 0.06
36741 C 108.84697820882184 105.22705542699937 47.53289463553324 C 0.0 **** -0.24
36742 H 109.01557012221033 104.21420411759047 47.16635530800268 H 0.0 **** 0.06
36743 H 109.64628242143363 105.50219281491118 48.22090353662554 H 0.0 **** 0.06
36744 H 107.88875461825955 105.27086719663495 48.05151510026889 H 0.0 **** 0.06
36745 H 108.83649294208311 105.92006248927689 46.690923503351556 H 0.0 **** 0.06
36746 C 24.568063106295654 55.297570247981696 6.624485800843672 C 0.0 **** -0.24
36747 H 24.962668597522622 54.29998529557099 6.816347240996549 H 0.0 **** 0.06
36748 H 25.378877712463492 55.95469360024555 6.309780154248756 H 0.0 **** 0.06
36749 H 24.113308152222913 55.68942832356541 7.534096281037591 H 0.0 **** 0.06
36750 H 23.816043073856633 55.24458552326371 5.836918295892644 H 0.0 **** 0.06
36751 C 84.03087771742153 74.11751591452224 110.15024269862624 C 0.0 **** -0.24
36752 H 83.4814691455827 73.73176204606585 109.29183416589575 H 0.0 **** 0.06
36753 H 83.79714471098403 75.17293129471375 110.28724007693688 H 0.0 **** 0.06
36754 H 85.10086123957996 74.00086579025373 109.97878990103115 H 0.0 **** 0.06
36755 H 83.74358641791375 73.56276381293935 111.04398310901095 H 0.0 **** 0.06
36756 C 78.02008649302736 5.07748827424237 46.76214691287254 C 0.0 **** -0.24
36757 H 78.1275899416467 4.987091668056564 47.84359250896196 H 0.0 **** 0.06
36758 H 78.06357081527287 4.086643489039318 46.309292833944994 H 0.0 **** 0.06
36759 H 78.82800962916215 5.693492396962199 46.367882829368796 H 0.0 **** 0.06
36760 H 77.06203504686731 5.5420538011980796 46.52977148379142 H 0.0 **** 0.06
36761 C 106.28654184805384 72.16159600606875 61.76448799015391 C 0.0 **** -0.24
36762 H 106.63027008967988 71.33765875750123 62.38946346618306 H 0.0 **** 0.06
36763 H 106.93534094364806 73.02522840563043 61.91294979706343 H 0.0 **** 0.06
36764 H 105.2642063427979 72.42363684640713 62.038976285776656 H 0.0 **** 0.06
36765 H 106.3165898791785 71.86049732000714 60.71780192778172 H 0.0 **** 0.06
36766 C 66.32029755712622 109.01613058626864 68.5192524622514 C 0.0 **** -0.24
36767 H 66.80396516938549 108.6870163691314 67.59908368720403 H 0.0 **** 0.06
36768 H 66.45207317803246 110.09226031377173 68.63396985109749 H 0.0 **** 0.06
36769 H 66.76894947447431 108.50241805256796 69.36883229921624 H 0.0 **** 0.06
36770 H 65.25653575768351 108.78354592145267 68.47303280683869 H 0.0 **** 0.06
36771 C 69.20254265081695 119.04795419915881 52.23421891056543 C 0.0 **** -0.24
36772 H 68.86150031310996 118.06491134061051 52.56089456643423 H 0.0 **** 0.06
36773 H 69.8917600304029 118.93410093534912 51.39759181815032 H 0.0 **** 0.06
36774 H 69.70974876172284 119.5476901303582 53.05869508337463 H 0.0 **** 0.06
36775 H 68.34507455202584 119.64304086056998 51.92028200750468 H 0.0 **** 0.06
36776 C 123.35126718815641 80.52877240553751 26.637431690680927 C 0.0 **** -0.24
36777 H 122.53144563469456 80.89367333076635 26.017640550633217 H 0.0 **** 0.06
36778 H 123.65246374257049 79.53845304724163 26.29356494337756 H 0.0 **** 0.06
36779 H 123.02294246950564 80.46923181881209 27.675282294968383 H 0.0 **** 0.06
36780 H 124.19568839621536 81.21278878167725 26.56131061388217 H 0.0 **** 0.06
36781 C 63.039790195540576 118.83228724991645 65.80238334881724 C 0.0 **** -0.24
36782 H 63.27982433701213 117.95456332227678 65.20260642094988 H 0.0 **** 0.06
36783 H 62.85688759868205 118.52893224755411 66.83346407686345 H 0.0 **** 0.06
36784 H 62.149056122348185 119.3143488694484 65.40132051085524 H 0.0 **** 0.06
36785 H 63.87644859374461 119.5310457070303 65.77291382632087 H 0.0 **** 0.06
36786 C 19.651965564003262 106.85067693382905 45.78962963052834 C 0.0 **** -0.24
36787 H 20.031464462412828 106.95230523238209 46.80613408942119 H 0.0 **** 0.06
36788 H 19.6970214351943 107.81711273946681 45.28617364586687 H 0.0 **** 0.06
36789 H 18.619376548892774 106.50434405114657 45.821101510154975 H 0.0 **** 0.06
36790 H 20.26107714298331 106.12811665210398 45.24549928236737 H 0.0 **** 0.06
36791 C 116.0489606674403 29.34344135487771 95.03358450436053 C 0.0 **** -0.24
36792 H 116.76932859412017 30.119029414972488 95.29366001890733 H 0.0 **** 0.06
36793 H 116.17443739143044 28.491652233280433 95.7018546109268 H 0.0 **** 0.06
36794 H 116.21435601404599 29.024929700617577 94.00363361384878 H 0.0 **** 0.06
36795 H 115.03777134963715 29.738603025297607 95.13324142658988 H 0.0 **** 0.06
36796 C 56.21294085096491 4.277550222758961 37.96888856773768 C 0.0 **** -0.24
36797 H 55.192222680668266 4.659064229515042 37.95420798136081 H 0.0 **** 0.06
36798 H 56.77934868795285 4.725068907808396 37.151496188018314 H 0.0 **** 0.06
36799 H 56.19773442202984 3.1944225248443594 37.85073535435578 H 0.0 **** 0.06
36800 H 56.68255824425407 4.53326760010399 38.91851647971305 H 0.0 **** 0.06
36801 C 31.318946978140758 60.037852054911696 119.82260406319033 C 0.0 **** -0.24
36802 H 30.835984669253236 60.6202256876895 120.608093389827 H 0.0 **** 0.06
36803 H 30.59948452097845 59.829474975242476 119.03105254622236 H 0.0 **** 0.06
36804 H 31.68371658137295 59.09901478356821 120.239253525924 H 0.0 **** 0.06
36805 H 32.155859328035206 60.603626856907255 119.413907808562 H 0.0 **** 0.06
36806 C 87.3270217600119 114.8649335784807 116.69240002103246 C 0.0 **** -0.24
36807 H 88.1275491944056 115.59066870530594 116.55062416727637 H 0.0 **** 0.06
36808 H 86.65483712271691 114.89384995456328 115.83450157472407 H 0.0 **** 0.06
36809 H 86.77210057015112 115.10903324928734 117.59847391628696 H 0.0 **** 0.06
36810 H 87.75422372542077 113.86620256976892 116.78678196078954 H 0.0 **** 0.06
36811 C 132.70056551646388 130.55704486601152 4.057044902592992 C 0.0 **** -0.24
36812 H 131.8339174025789 130.0992354542191 3.5809549791273696 H 0.0 **** 0.06
36813 H 132.66237692537436 131.63820307027856 3.91832323756978 H 0.0 **** 0.06
36814 H 133.61244698334582 130.16456628886226 3.6059796506196733 H 0.0 **** 0.06
36815 H 132.69416533722085 130.3269376989632 5.122873609256686 H 0.0 **** 0.06
36816 C 131.5206183159745 44.32996175538244 23.4147411129953 C 0.0 **** -0.24
36817 H 131.252222536582 44.78597897981793 22.46099999070706 H 0.0 **** 0.06
36818 H 132.52487161838283 44.646809790859564 23.697724735007682 H 0.0 **** 0.06
36819 H 131.49527638052248 43.24471072598704 23.317746070519803 H 0.0 **** 0.06
36820 H 130.81075778897363 44.64319979614254 24.18029256342502 H 0.0 **** 0.06
36821 C 9.340010602405954 136.30470100546898 14.460654906426186 C 0.0 **** -0.24
36822 H 8.28926968249553 136.14123047821064 14.221101215795784 H 0.0 **** 0.06
36823 H 9.845590406110972 136.73951751126089 13.598494407828866 H 0.0 **** 0.06
36824 H 9.80627439472866 135.3534385784761 14.715517405882252 H 0.0 **** 0.06
36825 H 9.416476033849904 136.98578068138343 15.309159854954657 H 0.0 **** 0.06
36826 C 91.90864614760477 133.06837426279068 126.10065008140279 C 0.0 **** -0.24
36827 H 91.96450776029855 133.20523593690436 125.02147940529906 H 0.0 **** 0.06
36828 H 91.28549421262284 132.20239938178645 126.32497630396902 H 0.0 **** 0.06
36829 H 91.47300396891316 133.9574806843791 126.55742328959121 H 0.0 **** 0.06
36830 H 92.91064108331679 132.90935100392795 126.49980774107703 H 0.0 **** 0.06
36831 C 135.92119230243725 109.27338560867105 36.479627139080264 C 0.0 **** -0.24
36832 H 135.3567294674848 108.36674104532403 36.26324235428149 H 0.0 **** 0.06
36833 H 136.34686940836008 109.20650389003174 37.48049419664508 H 0.0 **** 0.06
36834 H 135.25646789316926 110.13625507622297 36.42427493281909 H 0.0 **** 0.06
36835 H 136.72290730422503 109.38522148327445 35.749874550478864 H 0.0 **** 0.06
36836 C 14.291548613030166 1.251824363699292 98.38673706532882 C 0.0 **** -0.24
36837 H 14.204002911855177 2.0698486771878244 99.10105631273339 H 0.0 **** 0.06
36838 H 14.889627390505503 0.4507539500869342 98.82339611082324 H 0.0 **** 0.06
36839 H 14.774983012553541 1.6123253885210218 97.4785375979476 H 0.0 **** 0.06
36840 H 13.298607819762633 0.8735592624529822 98.14342006736501 H 0.0 **** 0.06
36841 C 86.05068102414864 40.889656813156385 125.38109266442257 C 0.0 **** -0.24
36842 H 86.27730465614525 40.98323737175542 126.44317245029353 H 0.0 **** 0.06
36843 H 86.93993934274539 41.13061084479286 124.79817424484212 H 0.0 **** 0.06
36844 H 85.24661400110247 41.577476277257524 125.11961864314857 H 0.0 **** 0.06
36845 H 85.7401577370276 39.867540770923576 125.1652150837499 H 0.0 **** 0.06
36846 C 106.15113945406029 4.742114114849642 127.90257887624236 C 0.0 **** -0.24
36847 H 105.72006690413966 5.695212346038318 127.59470013017852 H 0.0 **** 0.06
36848 H 107.08824269987986 4.920055709735379 128.43000313874919 H 0.0 **** 0.06
36849 H 106.33970303088475 4.127044977464749 127.02328953522257 H 0.0 **** 0.06
36850 H 105.45365188847967 4.2258917033666705 128.56357408227342 H 0.0 **** 0.06
36851 C 82.41374188091089 84.0590678810172 56.98549814389452 C 0.0 **** -0.24
36852 H 83.36905807560284 84.41513758275215 56.6021062832603 H 0.0 **** 0.06
36853 H 81.8903369930949 83.50972975089309 56.202243360618894 H 0.0 **** 0.06
36854 H 81.80948825362795 84.9093216981612 57.30014399830884 H 0.0 **** 0.06
36855 H 82.58665142215393 83.4014106935141 57.83797537154055 H 0.0 **** 0.06
36856 C 44.867574555387634 65.96530060047957 120.6531006018704 C 0.0 **** -0.24
36857 H 44.33729672081381 65.9668262499645 121.60555803656132 H 0.0 **** 0.06
36858 H 44.14535232009035 65.94687437887634 119.83672226208162 H 0.0 **** 0.06
36859 H 45.50601187728911 65.08436499151215 120.5941917300837 H 0.0 **** 0.06
36860 H 45.47941569466431 66.86390638192944 120.57779386667121 H 0.0 **** 0.06
36861 C 52.93501671156737 28.36680905870312 49.03821334644971 C 0.0 **** -0.24
36862 H 52.08482263424588 28.760223730788574 49.59492149435968 H 0.0 **** 0.06
36863 H 53.68031835024176 27.984009729147807 49.734810908457604 H 0.0 **** 0.06
36864 H 53.373525999230964 29.161891860250044 48.43638534978102 H 0.0 **** 0.06
36865 H 52.59913100058212 27.560512861367314 48.386032159145444 H 0.0 **** 0.06
36866 C 8.326303867182315 60.109585735606345 110.31423817470949 C 0.0 **** -0.24
36867 H 7.703775280932042 60.79610184925829 110.88903805259551 H 0.0 **** 0.06
36868 H 8.739336244812197 60.63150502991806 109.45079530637594 H 0.0 **** 0.06
36869 H 7.721847106198684 59.26826814216716 109.97602852345756 H 0.0 **** 0.06
36870 H 9.138713547480183 59.74507550163969 110.94199593806778 H 0.0 **** 0.06
36871 C 44.847184328771505 97.38938365214605 57.028601675247046 C 0.0 **** -0.24
36872 H 44.85739573029318 98.41566414427575 56.66043978487528 H 0.0 **** 0.06
36873 H 44.389302736544636 97.36349664550325 58.01802343913761 H 0.0 **** 0.06
36874 H 45.8687784418251 97.0162599578454 57.09080437506492 H 0.0 **** 0.06
36875 H 44.271988398111006 96.76533581645711 56.345099683848105 H 0.0 **** 0.06
36876 C 114.14482326144605 35.183648793913676 115.63662680933413 C 0.0 **** -0.24
36877 H 113.59190468919556 35.02137878158197 114.71167841445128 H 0.0 **** 0.06
36878 H 115.21445323066499 35.17193668429235 115.4277282522201 H 0.0 **** 0.06
36879 H 113.90469067939546 34.39152089363381 116.345931963022 H 0.0 **** 0.06
36880 H 113.86798809300905 36.148465673752355 116.06168062162237 H 0.0 **** 0.06
36881 C 65.05709479137685 36.356025350549906 63.107353125747494 C 0.0 **** -0.24
36882 H 64.19007584135441 36.77569237589781 62.59604221777539 H 0.0 **** 0.06
36883 H 65.969438112747 36.75416146362633 62.66196855657975 H 0.0 **** 0.06
36884 H 65.04728423905925 35.27063855685382 63.00584775770194 H 0.0 **** 0.06
36885 H 65.02057736429563 36.62259257172775 64.1635640184982 H 0.0 **** 0.06
36886 C 112.16272997254197 70.09312541201142 32.82407075335772 C 0.0 **** -0.24
36887 H 112.79201089629998 70.90062976936132 33.199866373719516 H 0.0 **** 0.06
36888 H 111.36918297507057 70.51065055278663 32.20342831664817 H 0.0 **** 0.06
36889 H 111.7233370492495 69.55419680378084 33.66319818995021 H 0.0 **** 0.06
36890 H 112.76782931289381 69.4092791668568 32.228872331982245 H 0.0 **** 0.06
36891 C 11.359754720712559 128.3125800416044 1.2944496541792425 C 0.0 **** -0.24
36892 H 10.43899189348977 128.70591668892212 0.8625860154642062 H 0.0 **** 0.06
36893 H 11.261579731247718 127.23682967553549 1.4415683225953408 H 0.0 **** 0.06
36894 H 11.546152466538118 128.79568169119204 2.2538654982698 H 0.0 **** 0.06
36895 H 12.19207772032793 128.51368534647338 0.618920077199963 H 0.0 **** 0.06
36896 C 3.477869070077986 85.30375753365638 92.62163049206097 C 0.0 **** -0.24
36897 H 2.650710413412753 85.93588114031132 92.9450920480607 H 0.0 **** 0.06
36898 H 3.0866205770823285 84.36372867087854 92.2335333640043 H 0.0 **** 0.06
36899 H 4.1334191199823636 85.10326445440772 93.46940979443818 H 0.0 **** 0.06
36900 H 4.040114009448246 85.81412072979762 91.8398152420366 H 0.0 **** 0.06
36901 C 3.338701801861294 130.24854152759565 1.326703164730361 C 0.0 **** -0.24
36902 H 3.502468388983111 129.8214322294004 2.316580561369495 H 0.0 **** 0.06
36903 H 4.2411114250223 130.13219648496153 0.7269450958916401 H 0.0 **** 0.06
36904 H 3.100649842366181 131.30743204544422 1.423956257100599 H 0.0 **** 0.06
36905 H 2.5098427801653713 129.73333428519743 0.8420525218143915 H 0.0 **** 0.06
36906 C 135.81296789701395 44.5183456808312 128.31068924825473 C 0.0 **** -0.24
36907 H 135.10474425945856 45.022983530357635 127.65448583199287 H 0.0 **** 0.06
36908 H 136.82759064415436 44.69327846597662 127.95228545001561 H 0.0 **** 0.06
36909 H 135.60680745237673 43.44832128224948 128.31327568006662 H 0.0 **** 0.06
36910 H 135.71299439454893 44.911001935655236 129.32242904275222 H 0.0 **** 0.06
36911 C 26.96381802635983 70.62492688152015 106.09046040529671 C 0.0 **** -0.24
36912 H 27.112385557200895 70.36095338146819 105.04298783700565 H 0.0 **** 0.06
36913 H 26.174627225524006 70.00368980465079 106.51346562628328 H 0.0 **** 0.06
36914 H 26.678744030150966 71.6747573632958 106.16261899429657 H 0.0 **** 0.06
36915 H 27.890153250134574 70.46192925136572 106.640327514148 H 0.0 **** 0.06
36916 C 45.94332903894529 6.655789795562072 80.91000045473676 C 0.0 **** -0.24
36917 H 46.615909786378296 6.430024492785066 80.08275127321265 H 0.0 **** 0.06
36918 H 46.52898173069519 6.883490270495855 81.80177428966012 H 0.0 **** 0.06
36919 H 45.30432618825352 5.794382253835067 81.10516572116825 H 0.0 **** 0.06
36920 H 45.325443494513934 7.515625248300211 80.65232530664761 H 0.0 **** 0.06
36921 C 47.417617065488415 58.26334990873211 46.79611381744135 C 0.0 **** -0.24
36922 H 46.93122211055467 58.41253277397219 45.831976121862084 H 0.0 **** 0.06
36923 H 47.65454803132654 57.20609782786674 46.92264800823091 H 0.0 **** 0.06
36924 H 46.74861868406924 58.58472264270402 47.59423021289771 H 0.0 **** 0.06
36925 H 48.33627827001398 58.84877049424118 46.833775334871305 H 0.0 **** 0.06
36926 C 99.68621867841622 1.9023680059567845 122.55253710270408 C 0.0 **** -0.24
36927 H 100.02411788562547 2.9331881921822003 122.66338373253296 H 0.0 **** 0.06
36928 H 99.85880976859055 1.3612613517125887 123.48370574388449 H 0.0 **** 0.06
36929 H 100.24042043880365 1.4234085212425605 121.74529037050317 H 0.0 **** 0.06
36930 H 98.62158964956149 1.8925770442380703 122.31750676257937 H 0.0 **** 0.06
36931 C 131.10601600267614 50.52983338550054 29.629014312914386 C 0.0 **** -0.24
36932 H 132.18927546881457 50.65040735399812 29.6031698803068 H 0.0 **** 0.06
36933 H 130.67210734851218 50.9515224828735 28.72191030262465 H 0.0 **** 0.06
36934 H 130.70329500450637 51.04814708977554 30.49949853758151 H 0.0 **** 0.06
36935 H 130.8600600764701 49.47040956195825 29.691013039653583 H 0.0 **** 0.06
36936 C 36.54802811944566 56.6970840196941 83.69988399866224 C 0.0 **** -0.24
36937 H 37.15320442123328 55.86468181914444 84.05951756087427 H 0.0 **** 0.06
36938 H 37.196827447623605 57.46257683481542 83.2755006890414 H 0.0 **** 0.06
36939 H 35.98265033360917 57.11988390938484 84.53071990430621 H 0.0 **** 0.06
36940 H 35.85705077858458 56.33902450562471 82.93570415640579 H 0.0 **** 0.06
36941 C 8.944917627312066 96.48683472399739 113.96933100417084 C 0.0 **** -0.24
36942 H 9.384532380601499 96.37538154191986 114.9601216398894 H 0.0 **** 0.06
36943 H 8.179938717417542 95.72342463273702 113.82304901170824 H 0.0 **** 0.06
36944 H 9.721265632188462 96.37240610054619 113.21238519463441 H 0.0 **** 0.06
36945 H 8.494266264419537 97.47542576325588 113.88113706147408 H 0.0 **** 0.06
36946 C 124.28956118713907 76.354456922277 0.6806092006861775 C 0.0 **** -0.24
36947 H 124.77001172379548 75.42773318347065 0.9940935659240608 H 0.0 **** 0.06
36948 H 123.79753553549575 76.815539512297 1.5372734793646998 H 0.0 **** 0.06
36949 H 123.5485656096101 76.13644376487832 -0.08935764387857148 H 0.0 **** 0.06
36950 H 125.03974073317872 77.03609086425843 0.2808757432561606 H 0.0 **** 0.06
36951 C 54.32536222433811 60.72400474528321 8.452096898264141 C 0.0 **** -0.24
36952 H 55.25764769832338 61.19729868450048 8.756966725500067 H 0.0 **** 0.06
36953 H 54.190635776122434 59.794983508209114 9.006747619525392 H 0.0 **** 0.06
36954 H 54.35972210888309 60.50734107799818 7.383939437513948 H 0.0 **** 0.06
36955 H 53.49133446979988 61.39498336964283 8.659134283500933 H 0.0 **** 0.06
36956 C 0.44728525637631833 72.61889187854213 90.25689510980399 C 0.0 **** -0.24
36957 H -0.5409826780160358 72.42190535128019 90.67186118061477 H 0.0 **** 0.06
36958 H 1.012843860359169 73.2453166981016 90.94669687279264 H 0.0 **** 0.06
36959 H 0.34430888067689125 73.13158539880726 89.30096663808615 H 0.0 **** 0.06
36960 H 0.9732438881671897 71.67537272827342 90.10808572030413 H 0.0 **** 0.06
36961 C 108.33967275959239 110.03935918340864 74.15747526996108 C 0.0 **** -0.24
36962 H 108.94968160656285 109.50328475199902 74.88405179029651 H 0.0 **** 0.06
36963 H 108.44917787914318 111.11346128257406 74.31392163989607 H 0.0 **** 0.06
36964 H 107.29435373873628 109.75888719151885 74.28370375565198 H 0.0 **** 0.06
36965 H 108.66586251863902 109.78329496901026 73.15012857850247 H 0.0 **** 0.06
36966 C 78.34684979692327 96.5471926892076 23.78509990748853 C 0.0 **** -0.24
36967 H 77.82719575751338 95.58958205721645 23.793735516555444 H 0.0 **** 0.06
36968 H 78.41380592231553 96.93413325486524 24.80194106568206 H 0.0 **** 0.06
36969 H 77.79684940894043 97.25331227371052 23.16260268590196 H 0.0 **** 0.06
36970 H 79.35018400142962 96.41169310550436 23.37997715086391 H 0.0 **** 0.06
36971 C 46.9037828737583 89.28615812985205 39.75361726158788 C 0.0 **** -0.24
36972 H 46.968359179341064 89.20728288616412 40.8385212326183 H 0.0 **** 0.06
36973 H 46.83539817687347 90.33708246018558 39.46933090591376 H 0.0 **** 0.06
36974 H 46.018307430547736 88.75673660331452 39.403288699576876 H 0.0 **** 0.06
36975 H 47.792959808881506 88.84525785777173 39.30340023343665 H 0.0 **** 0.06
36976 C 36.33425663761274 50.28554508322 103.64071606193032 C 0.0 **** -0.24
36977 H 37.04461461798572 50.43219675458852 104.4545274054451 H 0.0 **** 0.06
36978 H 35.76721713091192 51.2033493006287 103.48353240663835 H 0.0 **** 0.06
36979 H 35.65174360737519 49.475370554372375 103.89667551298125 H 0.0 **** 0.06
36980 H 36.87564039969068 50.03120794893567 102.72922644100458 H 0.0 **** 0.06
36981 C 117.14304632587894 68.64361676291848 111.8238588673293 C 0.0 **** -0.24
36982 H 118.13241686361516 68.18575249860957 111.84024016607992 H 0.0 **** 0.06
36983 H 116.5046156357096 68.15351554714557 112.55910993138033 H 0.0 **** 0.06
36984 H 116.7082013114073 68.53215031555129 110.83108141950294 H 0.0 **** 0.06
36985 H 117.22975710362834 69.703156306172 112.06534649782327 H 0.0 **** 0.06
36986 C 125.72894953304794 59.03520529375321 28.74494559526272 C 0.0 **** -0.24
36987 H 124.78563985017689 59.22069298762912 28.23203119381634 H 0.0 **** 0.06
36988 H 125.82567127400598 59.72005175309165 29.587970113405277 H 0.0 **** 0.06
36989 H 126.55560065786638 59.19340287456585 28.05189037885225 H 0.0 **** 0.06
36990 H 125.75007462678738 58.0072921545419 29.10679275230632 H 0.0 **** 0.06
36991 C 90.2320927535219 74.58373467489781 45.08858630140109 C 0.0 **** -0.24
36992 H 90.16587664855646 75.10656092694136 46.04255337879779 H 0.0 **** 0.06
36993 H 89.51938261446648 73.75963059126912 45.076555537277294 H 0.0 **** 0.06
36994 H 91.24128243003886 74.19388265702439 44.957031572407104 H 0.0 **** 0.06
36995 H 90.00087096978872 75.27601432271028 44.27907630515083 H 0.0 **** 0.06
36996 C 46.65915468985041 9.523337101475306 64.36216869228838 C 0.0 **** -0.24
36997 H 46.429753276082266 10.382684469458127 64.99266942899561 H 0.0 **** 0.06
36998 H 46.896597815286526 8.664812941937555 64.99146206911432 H 0.0 **** 0.06
36999 H 47.512464635746696 9.756455363597354 63.72683650949911 H 0.0 **** 0.06
37000 H 45.79470798057193 9.289284949697475 63.740428744727254 H 0.0 **** 0.06
37001 C 21.226000591801522 124.58643260468625 42.12141639183821 C 0.0 **** -0.24
37002 H 21.079711287799192 125.53551819856733 42.638328468743154 H 0.0 **** 0.06
37003 H 21.218878341832003 124.75541763668411 41.0439362470631 H 0.0 **** 0.06
37004 H 20.42209482902131 123.90095609618322 42.387571404446504 H 0.0 **** 0.06
37005 H 22.18371031308623 124.15624313845012 42.41557656440412 H 0.0 **** 0.06
37006 C 99.26517385714767 19.539460146658655 86.63798869278531 C 0.0 **** -0.24
37007 H 98.45133649281759 18.828504274537465 86.49724946320475 H 0.0 **** 0.06
37008 H 100.00147538463571 19.41044441174131 85.84391116498568 H 0.0 **** 0.06
37009 H 99.73884728079175 19.363421400455508 87.60414444749182 H 0.0 **** 0.06
37010 H 98.86987890935015 20.554935036960472 86.60659237796494 H 0.0 **** 0.06
37011 C 38.271624660975476 0.7590058770338182 100.16203825165115 C 0.0 **** -0.24
37012 H 38.89830405705541 0.6181562456595664 101.04294823530427 H 0.0 **** 0.06
37013 H 38.61207636190707 0.09840893522276772 99.36508822168858 H 0.0 **** 0.06
37014 H 38.341805921864164 1.7952887380903277 99.83016851304558 H 0.0 **** 0.06
37015 H 37.23674094425684 0.5258604767698287 100.41044100535856 H 0.0 **** 0.06
37016 C 89.2465423603911 49.298764478019976 42.93249221448718 C 0.0 **** -0.24
37017 H 89.53138455494866 49.27397270256091 41.88055430560536 H 0.0 **** 0.06
37018 H 90.04209949105166 48.85791485969291 43.53407145000165 H 0.0 **** 0.06
37019 H 88.32706407993669 48.73040939497156 43.07340801740315 H 0.0 **** 0.06
37020 H 89.08717283169598 50.33117837070276 43.24163766768231 H 0.0 **** 0.06
37021 C 108.26885244892667 69.9243042390059 27.52092832703316 C 0.0 **** -0.24
37022 H 109.31618314872158 69.65503000356702 27.387628625423503 H 0.0 **** 0.06
37023 H 107.68368370486193 69.5327401388137 26.688633202192456 H 0.0 **** 0.06
37024 H 108.17455679997131 71.01077575659627 27.552442387157605 H 0.0 **** 0.06
37025 H 107.901426676774 69.50078150749029 28.455602523981774 H 0.0 **** 0.06
37026 C 51.69726546889781 106.0831055471185 34.83377277985625 C 0.0 **** -0.24
37027 H 51.500553457465884 105.19652265560624 34.23132759345816 H 0.0 **** 0.06
37028 H 51.06815396325996 106.06416046766908 35.72460325430825 H 0.0 **** 0.06
37029 H 51.47306332401672 106.97610636196876 34.249270373494255 H 0.0 **** 0.06
37030 H 52.74691288106911 106.09687114230513 35.129321313557625 H 0.0 **** 0.06
37031 C 14.177366043515626 92.15229461125789 42.65752329993035 C 0.0 **** -0.24
37032 H 13.447069280514995 92.21586721766127 43.46422412756354 H 0.0 **** 0.06
37033 H 15.07431094661716 92.70495294266026 42.93528511263844 H 0.0 **** 0.06
37034 H 13.753064694266847 92.58127176910993 41.7492083376834 H 0.0 **** 0.06
37035 H 14.433797334853729 91.10776569326931 42.48116178251968 H 0.0 **** 0.06
37036 C 114.32772945857573 26.06312370498327 119.94185960481067 C 0.0 **** -0.24
37037 H 113.6571260008619 25.28989715351716 120.31550211108885 H 0.0 **** 0.06
37038 H 115.01479967626068 26.36177929546193 120.73457928320721 H 0.0 **** 0.06
37039 H 113.74457018102058 26.92646735863586 119.62151127473209 H 0.0 **** 0.06
37040 H 114.89549074752304 25.673806997827683 119.09659532922913 H 0.0 **** 0.06
37041 C 34.368392540084926 5.014002345929818 98.29619385145661 C 0.0 **** -0.24
37042 H 34.18575743792988 6.02659378608719 98.65501417745249 H 0.0 **** 0.06
37043 H 34.95238346525656 4.465550511348315 99.03647104787551 H 0.0 **** 0.06
37044 H 34.91938626130138 5.055343384211799 97.35612686313715 H 0.0 **** 0.06
37045 H 33.41558759894585 4.508301847497652 98.13630057523842 H 0.0 **** 0.06
37046 C 110.11164834273052 52.421226621575244 130.0753636711915 C 0.0 **** -0.24
37047 H 109.46257734261944 52.29827617022454 130.94214453589046 H 0.0 **** 0.06
37048 H 109.63212245581639 53.08369497742109 129.35403038428166 H 0.0 **** 0.06
37049 H 110.29109677589884 51.45040509312756 129.61490757411894 H 0.0 **** 0.06
37050 H 111.06108829016404 52.854876985824234 130.39101103282928 H 0.0 **** 0.06
37051 C 117.63709661280882 31.101206204310643 0.25457429108305973 C 0.0 **** -0.24
37052 H 118.18148034256393 31.9628079794947 0.6429991439703429 H 0.0 **** 0.06
37053 H 116.94009973891843 31.429938268452815 -0.5153988162023211 H 0.0 **** 0.06
37054 H 117.08554031542246 30.625089980391806 1.0660711274423988 H 0.0 **** 0.06
37055 H 118.34252599408808 30.38862710225058 -0.17225524059497843 H 0.0 **** 0.06
37056 C 118.80245384848118 100.29972640721292 24.431224026892096 C 0.0 **** -0.24
37057 H 118.09913023725207 100.70660103847203 25.158835231401696 H 0.0 **** 0.06
37058 H 118.87605018398267 99.2198270903423 24.56166225111258 H 0.0 **** 0.06
37059 H 119.78232292239234 100.75183428643294 24.582911534529444 H 0.0 **** 0.06
37060 H 118.4517689808327 100.52181664651835 23.424194219607415 H 0.0 **** 0.06
37061 C 4.733802261723909 4.381731653700118 127.83352321792782 C 0.0 **** -0.24
37062 H 3.6624285396246314 4.546297012670099 127.71561356773483 H 0.0 **** 0.06
37063 H 5.040392054522545 4.689582556265115 128.83292982112755 H 0.0 **** 0.06
37064 H 5.274723377119685 4.967429478419799 127.08969292489905 H 0.0 **** 0.06
37065 H 4.95661541001617 3.3238232015113027 127.69449418657155 H 0.0 **** 0.06
37066 C 56.159379236441595 3.748716643432772 65.17439294644518 C 0.0 **** -0.24
37067 H 57.09282449843856 4.086140348668778 64.72321529051044 H 0.0 **** 0.06
37068 H 55.60710894541543 4.609986686020704 65.55199400581246 H 0.0 **** 0.06
37069 H 56.37870864639096 3.0688649778153945 65.99754382828702 H 0.0 **** 0.06
37070 H 55.55897783500639 3.2322458378030205 64.42542423585698 H 0.0 **** 0.06
37071 C 69.70424163733323 88.84235299480736 41.463648899706016 C 0.0 **** -0.24
37072 H 69.62892781895475 88.47811559396376 42.488855252625854 H 0.0 **** 0.06
37073 H 69.26576384157708 88.11033735367887 40.78570320284007 H 0.0 **** 0.06
37074 H 70.75242733231197 88.99365239308193 41.20855433717969 H 0.0 **** 0.06
37075 H 69.16843104993062 89.78736315908365 41.37448127652283 H 0.0 **** 0.06
37076 C 88.63719071087735 24.86868737207209 136.56147358152543 C 0.0 **** -0.24
37077 H 89.17108348433139 24.77568563809649 137.50837872384892 H 0.0 **** 0.06
37078 H 87.76546870955355 25.50930588064108 136.69764176649232 H 0.0 **** 0.06
37079 H 88.3168364966782 23.882203832369783 136.22739659654178 H 0.0 **** 0.06
37080 H 89.29835979154494 25.308809920734035 135.81435063684745 H 0.0 **** 0.06
37081 C 29.903308790688953 10.598643745332254 68.23010066091568 C 0.0 **** -0.24
37082 H 30.72948126023431 11.064088420817868 68.76774494278642 H 0.0 **** 0.06
37083 H 29.463396516176772 9.815639745971737 68.84831261654736 H 0.0 **** 0.06
37084 H 30.27294509332455 10.164419422559703 67.3017019012454 H 0.0 **** 0.06
37085 H 29.1471850933668 11.350722392678406 68.00484808367939 H 0.0 **** 0.06
37086 C 7.713867422506809 123.95113030396384 61.233976391556496 C 0.0 **** -0.24
37087 H 8.471790881030472 124.23950411426138 60.50637513549532 H 0.0 **** 0.06
37088 H 7.410236198184691 124.82669967667991 61.80835470228686 H 0.0 **** 0.06
37089 H 8.123909182342572 123.19887775702524 61.90760455926164 H 0.0 **** 0.06
37090 H 6.849533428469357 123.53943966788883 60.71357116918216 H 0.0 **** 0.06
37091 C 40.748617422634624 61.52082537194349 19.90114338996061 C 0.0 **** -0.24
37092 H 41.69999171531434 61.81141824750881 19.456076230521546 H 0.0 **** 0.06
37093 H 40.85595492991942 61.467700533931406 20.985325363323966 H 0.0 **** 0.06
37094 H 40.45166860476062 60.54418426357347 19.51708652970791 H 0.0 **** 0.06
37095 H 39.987091222278536 62.25794900298081 19.647406045648367 H 0.0 **** 0.06
37096 C 6.34609508544483 119.21778568491021 58.509251668011046 C 0.0 **** -0.24
37097 H 5.864943127660105 118.47581590102573 59.14686026024515 H 0.0 **** 0.06
37098 H 6.835301271908666 119.96827738957455 59.130347941013184 H 0.0 **** 0.06
37099 H 5.595495416753526 119.698171072214 57.88064436995586 H 0.0 **** 0.06
37100 H 7.087768144593859 118.72709762396914 57.878120610325084 H 0.0 **** 0.06
37101 C 102.72119748178973 59.51437813120546 35.26647285758543 C 0.0 **** -0.24
37102 H 101.93176872137397 59.05399395344334 34.67337113933576 H 0.0 **** 0.06
37103 H 103.36594505087507 58.73773805234991 35.67889601620203 H 0.0 **** 0.06
37104 H 102.27692577565713 60.088573305126545 36.07897736545169 H 0.0 **** 0.06
37105 H 103.31170977349615 60.176937869621156 34.633067043856386 H 0.0 **** 0.06
37106 C 19.740004604558862 15.51441254348805 55.84941180355793 C 0.0 **** -0.24
37107 H 20.103932679627974 16.472383449383017 56.21975640608483 H 0.0 **** 0.06
37108 H 20.264303727053942 15.257896372225161 54.92955372381766 H 0.0 **** 0.06
37109 H 18.66999514522388 15.584903106827397 55.65056522766001 H 0.0 **** 0.06
37110 H 19.92037971001139 14.743585862672035 56.59910183354401 H 0.0 **** 0.06
37111 C 62.60213518407153 45.74852300980204 104.4299642997395 C 0.0 **** -0.24
37112 H 61.573532808602636 45.796576644134305 104.07231633061357 H 0.0 **** 0.06
37113 H 63.267721335432185 45.540050439041295 103.5916789220064 H 0.0 **** 0.06
37114 H 62.692267017898814 44.95626335911345 105.1726795405128 H 0.0 **** 0.06
37115 H 62.87403010721914 46.702847977212954 104.88087788768983 H 0.0 **** 0.06
37116 C 13.077535198509963 54.83346673554803 34.74065099002965 C 0.0 **** -0.24
37117 H 13.860958193436659 55.54253545756717 35.00807951843103 H 0.0 **** 0.06
37118 H 12.928784969775052 54.129994161861276 35.56109225122132 H 0.0 **** 0.06
37119 H 13.370469074285893 54.28919968856118 33.843683255019165 H 0.0 **** 0.06
37120 H 12.149236454296613 55.3719905699663 34.55097345955284 H 0.0 **** 0.06
37121 C 64.88139230757807 104.67093486843163 92.00828248651678 C 0.0 **** -0.24
37122 H 64.85072061456412 103.7867857109618 91.37170604444663 H 0.0 **** 0.06
37123 H 64.10587733505807 104.59631978569536 92.77067883029483 H 0.0 **** 0.06
37124 H 64.70980657872774 105.56062042867973 91.40119182601828 H 0.0 **** 0.06
37125 H 65.85756300994277 104.74009079073886 92.48722322662383 H 0.0 **** 0.06
37126 C 96.3723734954118 8.018960219873229 31.959169305328487 C 0.0 **** -0.24
37127 H 97.09812588717122 7.540687205095264 31.30101090822427 H 0.0 **** 0.06
37128 H 95.45049733310643 8.204667596849834 31.40757054118251 H 0.0 **** 0.06
37129 H 96.77692443627546 8.965079343372345 32.32006713874358 H 0.0 **** 0.06
37130 H 96.16398676879413 7.365781011553974 32.80582442979647 H 0.0 **** 0.06
37131 C 10.929929921563371 111.67753249711123 17.29312833102199 C 0.0 **** -0.24
37132 H 9.962926093814701 111.68440876335993 17.79584332480647 H 0.0 **** 0.06
37133 H 11.720704832215318 111.8448145262251 18.024377140971524 H 0.0 **** 0.06
37134 H 10.954257462455928 112.46813226282882 16.543176838316697 H 0.0 **** 0.06
37135 H 11.080211846500333 110.71303075755137 16.808557615201778 H 0.0 **** 0.06
37136 C 30.220721914763743 99.19311321056564 7.505576509313187 C 0.0 **** -0.24
37137 H 30.246425710670927 98.1817536038944 7.91193121558706 H 0.0 **** 0.06
37138 H 31.11277915128281 99.73395205540355 7.821120928409641 H 0.0 **** 0.06
37139 H 29.332657129765416 99.7089418273275 7.871994138836783 H 0.0 **** 0.06
37140 H 30.190040276758147 99.1449769802987 6.417087372649803 H 0.0 **** 0.06
37141 C 27.92316418174579 6.065631470480131 61.2419207073162 C 0.0 **** -0.24
37142 H 28.932486274297048 6.122986166002086 60.835210265771664 H 0.0 **** 0.06
37143 H 27.903889436676536 6.525210167189179 62.23062137709519 H 0.0 **** 0.06
37144 H 27.622095047383766 5.020588417321541 61.31991102347588 H 0.0 **** 0.06
37145 H 27.234614062363903 6.593749359680082 60.58284388544226 H 0.0 **** 0.06
37146 C 15.981791533010778 0.05892192381545058 107.01435470507532 C 0.0 **** -0.24
37147 H 15.323805358497538 -0.6892641382614855 106.57164497948047 H 0.0 **** 0.06
37148 H 15.548709025805238 1.050105812286393 106.87586588526585 H 0.0 **** 0.06
37149 H 16.957305517842073 0.017516271360079827 106.53095626812933 H 0.0 **** 0.06
37150 H 16.0952125750413 -0.1418456070301275 108.07982790589101 H 0.0 **** 0.06
37151 C 86.58703091821133 122.62714061313079 112.09828045218094 C 0.0 **** -0.24
37152 H 86.56430369536878 123.1277534915418 113.06708918259713 H 0.0 **** 0.06
37153 H 85.7588243566409 121.9223246123716 112.03474861294671 H 0.0 **** 0.06
37154 H 87.53015136455413 122.09103791585522 111.98851788174022 H 0.0 **** 0.06
37155 H 86.49658119636072 123.3688910128264 111.30474012351064 H 0.0 **** 0.06
37156 C 24.97857626541102 43.640205978441315 136.0531954966617 C 0.0 **** -0.24
37157 H 23.941862847437832 43.69263953991543 135.71814900701315 H 0.0 **** 0.06
37158 H 25.386012008950814 44.64796032326271 136.13241257460945 H 0.0 **** 0.06
37159 H 25.562813092066733 43.06630939701506 135.3338227768724 H 0.0 **** 0.06
37160 H 25.020621948356847 43.15259206288181 137.02786824047953 H 0.0 **** 0.06
37161 C 111.19653893372353 87.61312998019514 16.82655354374762 C 0.0 **** -0.24
37162 H 111.51988520617115 87.24932531676427 15.851081641019135 H 0.0 **** 0.06
37163 H 110.24822288463176 88.14109102446429 16.720426617189915 H 0.0 **** 0.06
37164 H 111.94766275991239 88.29274784268324 17.228396292512343 H 0.0 **** 0.06
37165 H 111.06896501730543 86.7698109744652 17.50436616990349 H 0.0 **** 0.06
37166 C 82.56921087571666 99.32214734001569 78.78139806389116 C 0.0 **** -0.24
37167 H 82.12963307838207 100.31550285192009 78.86784006150434 H 0.0 **** 0.06
37168 H 82.11676913808274 98.65927729058726 79.51929091240015 H 0.0 **** 0.06
37169 H 83.64358902181993 99.38341109598785 78.95833441108735 H 0.0 **** 0.06
37170 H 82.38804831807907 98.93102352949234 77.78054926097563 H 0.0 **** 0.06
37171 C 19.433745064964086 81.96035322874577 32.75811181123843 C 0.0 **** -0.24
37172 H 20.405497584947142 82.00064962651525 33.250032834681875 H 0.0 **** 0.06
37173 H 18.847819775948295 82.83533928939961 33.03968598512992 H 0.0 **** 0.06
37174 H 18.909046144214727 81.05578518243179 33.06617149742214 H 0.0 **** 0.06
37175 H 19.57449971841453 81.94880622806228 31.677884151200637 H 0.0 **** 0.06
37176 C 62.11653195880899 64.96171104429641 136.27924833249853 C 0.0 **** -0.24
37177 H 62.981163358894776 64.83424557444434 136.9309431829913 H 0.0 **** 0.06
37178 H 61.51443470772898 64.05287493499591 136.29205125158126 H 0.0 **** 0.06
37179 H 62.455766017171726 65.15850618401048 135.26206348909102 H 0.0 **** 0.06
37180 H 61.51720859605959 65.80128436049688 136.63207156934635 H 0.0 **** 0.06
37181 C 7.620503678115398 75.20803014744416 99.78440488135799 C 0.0 **** -0.24
37182 H 7.448215291935469 74.15327358768677 99.99619327731935 H 0.0 **** 0.06
37183 H 8.690378356175685 75.41392620947832 99.81447211763032 H 0.0 **** 0.06
37184 H 7.11151182286012 75.8161500321112 100.53221606011893 H 0.0 **** 0.06
37185 H 7.231881507498347 75.4480721840967 98.79545310055873 H 0.0 **** 0.06
37186 C 68.53281024937445 24.84779980610466 122.0383553196522 C 0.0 **** -0.24
37187 H 68.43393896594227 25.299692673749234 123.02572526220979 H 0.0 **** 0.06
37188 H 67.70248827312855 24.161554254801814 121.86824189656996 H 0.0 **** 0.06
37189 H 69.47451281370854 24.300064690670723 121.98243867768598 H 0.0 **** 0.06
37190 H 68.5215458783619 25.628667923280517 121.2784164232201 H 0.0 **** 0.06
37191 C 77.91767853317545 121.2970333196758 12.570109288860891 C 0.0 **** -0.24
37192 H 77.37661985250529 121.65381996112168 13.446875442909516 H 0.0 **** 0.06
37193 H 77.37777121461792 121.58539156561181 11.668563039168816 H 0.0 **** 0.06
37194 H 78.00307005298659 120.21090415057002 12.61186819767093 H 0.0 **** 0.06
37195 H 78.91432436628672 121.73931135143873 12.55460649867149 H 0.0 **** 0.06
37196 C 25.519004533288978 125.0484286190553 40.6255962531049 C 0.0 **** -0.24
37197 H 26.254631241175986 124.35213351967198 41.02601161221591 H 0.0 **** 0.06
37198 H 25.47208549401904 124.94313001428593 39.541478689138415 H 0.0 **** 0.06
37199 H 25.807128801818436 126.06869605892072 40.879767141050166 H 0.0 **** 0.06
37200 H 24.540524222332238 124.82924838033206 41.05496491233043 H 0.0 **** 0.06
37201 C 23.878058594755274 19.855856430998415 17.193169321654352 C 0.0 **** -0.24
37202 H 24.768618837093307 20.461117052785426 17.02521970084058 H 0.0 **** 0.06
37203 H 23.633378431735167 19.855111409029973 18.254880712832914 H 0.0 **** 0.06
37204 H 24.06712283659858 18.834295895036405 16.862766743033944 H 0.0 **** 0.06
37205 H 23.04444684188843 20.271754492093635 16.628104487085466 H 0.0 **** 0.06
37206 C 115.07845097173521 39.31693120418703 84.4284319422821 C 0.0 **** -0.24
37207 H 114.98047448763239 38.456001208979245 85.08953949984605 H 0.0 **** 0.06
37208 H 116.05139181070697 39.290188679149665 83.93845950366575 H 0.0 **** 0.06
37209 H 114.98822843691818 40.234539930285834 85.01018722091274 H 0.0 **** 0.06
37210 H 114.29063541599467 39.286081073505684 83.67469454993564 H 0.0 **** 0.06
37211 C 126.81840450698589 79.83605290540922 100.14238205759625 C 0.0 **** -0.24
37212 H 126.8093927222267 80.30385418153759 99.157326795713 H 0.0 **** 0.06
37213 H 126.58875893110628 78.77520578092256 100.04205083453849 H 0.0 **** 0.06
37214 H 126.07157763500965 80.3127661796052 100.77658163046056 H 0.0 **** 0.06
37215 H 127.80537993572483 79.95417266202978 100.59081526026836 H 0.0 **** 0.06
37216 C 13.009502243805969 33.77603113492612 63.192916982529994 C 0.0 **** -0.24
37217 H 12.211820914233243 34.32923854578785 62.696959193602936 H 0.0 **** 0.06
37218 H 13.705344622355 34.47815075993145 63.65365502156209 H 0.0 **** 0.06
37219 H 13.539212746187985 33.16676597278262 62.46038928938199 H 0.0 **** 0.06
37220 H 12.581492634563403 33.130920643953914 63.960389003664744 H 0.0 **** 0.06
37221 C 107.0393681496804 106.19832483274655 69.34574400720629 C 0.0 **** -0.24
37222 H 106.41796050005269 106.97538356681079 69.78966547450848 H 0.0 **** 0.06
37223 H 107.49436147217446 106.57584688007091 68.42951025705007 H 0.0 **** 0.06
37224 H 106.42419546560916 105.32920726797336 69.11414681697056 H 0.0 **** 0.06
37225 H 107.82138489969805 105.91364800136142 70.04920966820853 H 0.0 **** 0.06
37226 C 3.767250593813209 96.4412639065992 33.46193205904763 C 0.0 **** -0.24
37227 H 4.054924603085251 95.92867926376124 34.3798670841122 H 0.0 **** 0.06
37228 H 3.152078799300579 95.77846325604776 32.853745409314854 H 0.0 **** 0.06
37229 H 4.663296163093424 96.71932733971454 32.905609129997764 H 0.0 **** 0.06
37230 H 3.2009510404761627 97.33793550060486 33.7100950029137 H 0.0 **** 0.06
37231 C 45.493248106895635 84.6366155356393 3.3959859175675966 C 0.0 **** -0.24
37232 H 45.91431351982928 83.93572114738527 4.1170379636777845 H 0.0 **** 0.06
37233 H 45.33426782847178 84.12749380034626 2.4448037879544593 H 0.0 **** 0.06
37234 H 46.18471576267629 85.46756554965566 3.251941913623849 H 0.0 **** 0.06
37235 H 44.542636606640116 85.0150918564961 3.770122865168293 H 0.0 **** 0.06
37236 C 24.498358606407322 92.45378866084403 133.0212231171305 C 0.0 **** -0.24
37237 H 24.670141843163606 91.70087764749113 133.79099426873333 H 0.0 **** 0.06
37238 H 24.614880894159228 91.99983831047439 132.03723699565347 H 0.0 **** 0.06
37239 H 25.219336223713157 93.26298333687572 133.13741396701084 H 0.0 **** 0.06
37240 H 23.488182710784656 92.85053760083048 133.12196038048694 H 0.0 **** 0.06
37241 C 131.81700232808822 16.255370997911797 57.341802891574446 C 0.0 **** -0.24
37242 H 132.18219230649868 17.25381515574128 57.58480836681727 H 0.0 **** 0.06
37243 H 132.55832787652076 15.514644233549859 57.64190847790519 H 0.0 **** 0.06
37244 H 131.64488748722795 16.18374750058429 56.26789851296192 H 0.0 **** 0.06
37245 H 130.8828318417681 16.071501321117893 57.87260559728904 H 0.0 **** 0.06
37246 C 136.12464399363995 121.89520294474809 88.03349398479281 C 0.0 **** -0.24
37247 H 136.961363835054 122.59241953888736 88.07356862094832 H 0.0 **** 0.06
37248 H 135.5044427252199 122.12063529173196 87.16596663417482 H 0.0 **** 0.06
37249 H 135.52841563210006 121.99142269174726 88.94176852340593 H 0.0 **** 0.06
37250 H 136.50448013164743 120.8766900023225 87.95564838273299 H 0.0 **** 0.06
37251 C 134.98190991557055 20.925637502668458 95.43959583552258 C 0.0 **** -0.24
37252 H 136.0531478806427 21.12372562808637 95.48061285316234 H 0.0 **** 0.06
37253 H 134.78366264036123 19.92165960588597 95.81679940107202 H 0.0 **** 0.06
37254 H 134.63733484742778 21.001329138197 94.4087288138646 H 0.0 **** 0.06
37255 H 134.4541030543192 21.655594365398073 96.0543803641934 H 0.0 **** 0.06
37256 C 123.77213703292136 133.7663584872008 33.151445364778176 C 0.0 **** -0.24
37257 H 123.88210155049936 134.84970834592346 33.12031843586346 H 0.0 **** 0.06
37258 H 124.75774310538299 133.30050798349347 33.153693845366476 H 0.0 **** 0.06
37259 H 123.21448786415081 133.43209661017826 32.27529665154878 H 0.0 **** 0.06
37260 H 123.23336241108942 133.48123869305778 34.05515753097717 H 0.0 **** 0.06
37261 C 12.560752620698235 19.180422770753005 76.38765818068926 C 0.0 **** -0.24
37262 H 12.643015016779042 18.82454886982896 77.41431620358773 H 0.0 **** 0.06
37263 H 12.337208560116412 18.340432745244527 75.72958455587383 H 0.0 **** 0.06
37264 H 13.50324641868675 19.63732292090394 76.08552614627185 H 0.0 **** 0.06
37265 H 11.76096885283335 19.917702881717936 76.32155975837873 H 0.0 **** 0.06
37266 C 81.57089690037526 25.098195741541048 20.74593979786573 C 0.0 **** -0.24
37267 H 81.02350491699417 24.721761385704326 19.881880050742154 H 0.0 **** 0.06
37268 H 82.20328117024428 24.306776288634126 21.14767904864803 H 0.0 **** 0.06
37269 H 80.8639233950388 25.423443784169137 21.509776350413972 H 0.0 **** 0.06
37270 H 82.19158962547698 25.941916833937597 20.443376833574064 H 0.0 **** 0.06
37271 C 1.2914783772469605 71.53750465300496 23.969353767597084 C 0.0 **** -0.24
37272 H 0.8486342523871144 71.78817427809373 24.933507231612907 H 0.0 **** 0.06
37273 H 1.317716541191487 70.45285847818843 23.85325289347253 H 0.0 **** 0.06
37274 H 2.3064149085216172 71.93286781709203 23.921889110151227 H 0.0 **** 0.06
37275 H 0.6925577923508399 71.97431843483426 23.170319407501722 H 0.0 **** 0.06
37276 C 8.456895765145589 126.04740668142814 34.6672846059374 C 0.0 **** -0.24
37277 H 8.883455198944546 125.05712080622897 34.8243099490108 H 0.0 **** 0.06
37278 H 7.932020594297427 126.07011690829896 33.71239228226855 H 0.0 **** 0.06
37279 H 9.254695664565205 126.79015698990763 34.66177408974673 H 0.0 **** 0.06
37280 H 7.756962051548527 126.27258580684773 35.47195548285248 H 0.0 **** 0.06
37281 C 46.70305960360777 51.421168913003726 70.13120523346828 C 0.0 **** -0.24
37282 H 46.38654804347115 51.31767726047619 71.16868242958151 H 0.0 **** 0.06
37283 H 46.20765536053649 52.283732279159324 69.68472660155732 H 0.0 **** 0.06
37284 H 46.433683325451796 50.520812423539894 69.57783940915596 H 0.0 **** 0.06
37285 H 47.78272228363575 51.561906634012985 70.09335820092087 H 0.0 **** 0.06
37286 C 76.2403018430907 126.38291129224717 27.744232870885384 C 0.0 **** -0.24
37287 H 75.6637227875185 125.98258025559977 28.579076442081828 H 0.0 **** 0.06
37288 H 75.94887416138893 127.4186953245162 27.565948058226496 H 0.0 **** 0.06
37289 H 76.0444512144101 125.79015874995383 26.851106349282446 H 0.0 **** 0.06
37290 H 77.30260156385785 126.34000357229945 27.983544945428022 H 0.0 **** 0.06
37291 C 76.9445586745316 97.27123349812618 80.44939198526447 C 0.0 **** -0.24
37292 H 76.15101995004883 96.6400583662735 80.85103656427782 H 0.0 **** 0.06
37293 H 76.93145345201094 97.22142988357011 79.36041267660238 H 0.0 **** 0.06
37294 H 77.90894588318127 96.9216590823177 80.81839620700714 H 0.0 **** 0.06
37295 H 76.7848728940084 98.3007713240984 80.76816514930718 H 0.0 **** 0.06
37296 C 40.816592673264196 57.901398618388285 110.12390195056435 C 0.0 **** -0.24
37297 H 40.619971291980946 58.207004059709874 111.15168569339173 H 0.0 **** 0.06
37298 H 40.4796610137984 56.87497697632291 109.97925159247251 H 0.0 **** 0.06
37299 H 41.8855288748604 57.96546186884957 109.92365385533682 H 0.0 **** 0.06
37300 H 40.279659558167715 58.559675501722936 109.44049177858359 H 0.0 **** 0.06
37301 C 86.34925418409678 17.65860770909515 101.86246085598907 C 0.0 **** -0.24
37302 H 86.38130749653862 18.019782267788216 102.88970304759448 H 0.0 **** 0.06
37303 H 87.2790466014571 17.91955553494465 101.35671549733755 H 0.0 **** 0.06
37304 H 85.5107711940027 18.12051132026056 101.34162751277547 H 0.0 **** 0.06
37305 H 86.22603526579812 16.575565434871834 101.86168941353192 H 0.0 **** 0.06
37306 C 12.731524996442403 8.989740180395245 114.74494274958616 C 0.0 **** -0.24
37307 H 11.920673569484933 9.227957129374232 114.05638721711483 H 0.0 **** 0.06
37308 H 13.4136388816502 8.282909063640233 114.27129780444523 H 0.0 **** 0.06
37309 H 12.318871636769614 8.545941824645837 115.65133963734255 H 0.0 **** 0.06
37310 H 13.271001044262192 9.901299769386526 114.99947901294868 H 0.0 **** 0.06
37311 C 4.844874967396606 122.80165563343223 73.18945798859778 C 0.0 **** -0.24
37312 H 4.98750001840844 122.84013235627026 72.10890176158986 H 0.0 **** 0.06
37313 H 4.766445104544857 123.81565216682617 73.5816019027481 H 0.0 **** 0.06
37314 H 5.694631463691337 122.29697970492703 73.65013706133749 H 0.0 **** 0.06
37315 H 3.9305031072155145 122.25197827877099 73.41449132855146 H 0.0 **** 0.06
37316 C 70.7185951387971 39.337136788017915 38.51065221431736 C 0.0 **** -0.24
37317 H 70.95747349235214 39.632365162172405 37.489046423509194 H 0.0 **** 0.06
37318 H 71.02722923915086 38.30429151657847 38.67080114271391 H 0.0 **** 0.06
37319 H 69.6434831686069 39.424882756455446 38.67093949372071 H 0.0 **** 0.06
37320 H 71.24500108018447 39.987250366774774 39.20873683220333 H 0.0 **** 0.06
37321 C 36.71803120130175 9.756004342374524 108.41187767153147 C 0.0 **** -0.24
37322 H 37.24713173467351 9.736351524171539 107.45929673661773 H 0.0 **** 0.06
37323 H 37.32690554190575 9.270934480995152 109.1755388395952 H 0.0 **** 0.06
37324 H 35.7702970422671 9.22593674771025 108.3119155790329 H 0.0 **** 0.06
37325 H 36.52842074943037 10.790046501730956 108.70055183176959 H 0.0 **** 0.06
37326 C 53.22695195796496 100.3375984930679 89.46609954844119 C 0.0 **** -0.24
37327 H 54.24336977265426 100.17393951420752 89.10603609171939 H 0.0 **** 0.06
37328 H 52.62163622207578 100.76148630462 88.66476750087996 H 0.0 **** 0.06
37329 H 53.24857739711774 101.02712240889528 90.310072993728 H 0.0 **** 0.06
37330 H 52.79737972832612 99.38767027593161 89.78340400689845 H 0.0 **** 0.06
37331 C 9.473356535707069 98.67353840066197 81.1551172017102 C 0.0 **** -0.24
37332 H 10.402053807093239 98.29302597091132 81.58155920009122 H 0.0 **** 0.06
37333 H 9.050603301675181 97.9257727766434 80.48398580977415 H 0.0 **** 0.06
37334 H 9.678314233253388 99.58806969229974 80.59777891814439 H 0.0 **** 0.06
37335 H 8.765493808144896 98.88642465185987 81.95613272017675 H 0.0 **** 0.06
37336 C 37.16198599692077 118.74264403229517 5.328595716322994 C 0.0 **** -0.24
37337 H 37.35440125974579 117.67016469449408 5.34715573409715 H 0.0 **** 0.06
37338 H 37.340763352829974 119.16030209816832 6.319588388206153 H 0.0 **** 0.06
37339 H 36.12681639118525 118.92057849325197 5.040187674382377 H 0.0 **** 0.06
37340 H 37.827454811670286 119.21795797020447 4.6085915940905195 H 0.0 **** 0.06
37341 C 63.004073679417516 95.83483254252292 119.79966574832312 C 0.0 **** -0.24
37342 H 62.13087900051261 95.68173293681332 119.16565816577571 H 0.0 **** 0.06
37343 H 62.71564773733394 95.72936996890826 120.84558792080313 H 0.0 **** 0.06
37344 H 63.40458959376042 96.83471531186967 119.63186073456049 H 0.0 **** 0.06
37345 H 63.76479666047064 95.09269359879067 119.55512648724023 H 0.0 **** 0.06
37346 C 58.623843701999476 111.32192608246515 100.78045747813358 C 0.0 **** -0.24
37347 H 59.241397340233476 110.42402735459649 100.73992979832227 H 0.0 **** 0.06
37348 H 58.54610840210239 111.75335681655395 99.78208988838894 H 0.0 **** 0.06
37349 H 59.07922308593558 112.04548911113983 101.45513749828518 H 0.0 **** 0.06
37350 H 57.62960883606121 111.062443136642 101.14283663044323 H 0.0 **** 0.06
37351 C 114.81422621220455 7.6978335125221236 70.59091225098688 C 0.0 **** -0.24
37352 H 114.1013454171684 8.153049349800625 71.27886544932649 H 0.0 **** 0.06
37353 H 114.33302376955001 7.531922297205085 69.62697618114758 H 0.0 **** 0.06
37354 H 115.15195814567292 6.744409063104712 70.99766406959777 H 0.0 **** 0.06
37355 H 115.66877105638446 8.360842628504344 70.46226543470485 H 0.0 **** 0.06
37356 C 116.43054507008975 27.189044567937117 123.44618664869904 C 0.0 **** -0.24
37357 H 116.70828307248038 27.887366950253096 124.2356222125893 H 0.0 **** 0.06
37358 H 115.6869224371307 27.65304447882363 122.79765171534453 H 0.0 **** 0.06
37359 H 116.01322436488752 26.28548036102785 123.89034901073461 H 0.0 **** 0.06
37360 H 117.31422026901464 26.932168227961682 122.86223653129778 H 0.0 **** 0.06
37361 C 92.54129435950645 127.13778590253145 5.332168069516371 C 0.0 **** -0.24
37362 H 91.56959238341031 127.54496012828724 5.612261799181908 H 0.0 **** 0.06
37363 H 93.22335004789578 127.21040062828075 6.178904847095055 H 0.0 **** 0.06
37364 H 92.94348246937564 127.70291746488499 4.49138028352516 H 0.0 **** 0.06
37365 H 92.42817105934213 126.09181616213186 5.045376282383273 H 0.0 **** 0.06
37366 C 59.5527336345404 43.26959821531955 38.711400986149116 C 0.0 **** -0.24
37367 H 58.844032611128284 43.18563132097481 39.535351522610156 H 0.0 **** 0.06
37368 H 60.06448395877476 44.230248908901956 38.770383337123505 H 0.0 **** 0.06
37369 H 59.018277828846635 43.20021880010364 37.76418478561948 H 0.0 **** 0.06
37370 H 60.28334577013351 42.46406342502732 38.77679684012503 H 0.0 **** 0.06
37371 C 55.72319776180383 120.3332162125568 32.57460430184756 C 0.0 **** -0.24
37372 H 55.72877093260439 119.39965951231389 33.13730039471113 H 0.0 **** 0.06
37373 H 54.96843855735901 120.27898912846322 31.78932786504049 H 0.0 **** 0.06
37374 H 56.704023531376905 120.49162448327192 32.12626548780486 H 0.0 **** 0.06
37375 H 55.49218933018277 121.16031879613155 33.24486351896303 H 0.0 **** 0.06
37376 C 119.3589256284402 58.92940051094138 37.810360790315116 C 0.0 **** -0.24
37377 H 120.38741707398864 59.24050289332611 37.99227477001591 H 0.0 **** 0.06
37378 H 118.70722561472861 59.37137891633519 38.56432714409834 H 0.0 **** 0.06
37379 H 119.29355538045323 57.84321791521994 37.86415770782645 H 0.0 **** 0.06
37380 H 119.04945880918629 59.26329627548232 36.819941701279134 H 0.0 **** 0.06
37381 C 34.15678425771501 16.851865810847272 128.28340307812857 C 0.0 **** -0.24
37382 H 34.83404714793531 16.607664932321086 127.46501626916614 H 0.0 **** 0.06
37383 H 33.15654116356991 16.48793336315083 128.04712777597103 H 0.0 **** 0.06
37384 H 34.12830596537103 17.932705188327702 128.4213062543182 H 0.0 **** 0.06
37385 H 34.508785345471054 16.376788306212177 129.19987551447917 H 0.0 **** 0.06
37386 C 117.58163004429102 73.78121157034872 88.12254715012236 C 0.0 **** -0.24
37387 H 118.11179728843211 73.1447199090046 88.83123829291173 H 0.0 **** 0.06
37388 H 117.30570192557153 73.19640583251805 87.24453802299075 H 0.0 **** 0.06
37389 H 118.22711074937658 74.60701645864458 87.82210573657238 H 0.0 **** 0.06
37390 H 116.68151117981006 74.17686600134198 88.59320910001338 H 0.0 **** 0.06
37391 C 120.37299273023658 54.09684117494862 75.90362983488342 C 0.0 **** -0.24
37392 H 121.28811977417178 54.4912451360523 75.46071661437425 H 0.0 **** 0.06
37393 H 119.57081491647963 54.826021524409214 75.79039631124762 H 0.0 **** 0.06
37394 H 120.53840785850446 53.89906449784752 76.9627612192841 H 0.0 **** 0.06
37395 H 120.09688533507128 53.17009403526643 75.40049117224886 H 0.0 **** 0.06
37396 C 98.81121557718517 2.3081741982856308 102.63228313422111 C 0.0 **** -0.24
37397 H 98.87449353704058 2.2467648232699062 101.54579666116807 H 0.0 **** 0.06
37398 H 99.68840155985465 2.828151387934767 103.01796248035882 H 0.0 **** 0.06
37399 H 98.77057954741274 1.3028656369559144 103.05133976798588 H 0.0 **** 0.06
37400 H 97.91103365642044 2.856293104985543 102.91262808878543 H 0.0 **** 0.06
37401 C 45.68085391656106 31.735760650242696 39.877014377242745 C 0.0 **** -0.24
37402 H 45.867582315073605 32.19331012752497 40.8496664956204 H 0.0 **** 0.06
37403 H 45.812203672359786 30.65649096245936 39.95146047910933 H 0.0 **** 0.06
37404 H 46.382210574713554 32.139056905283184 39.14647208756415 H 0.0 **** 0.06
37405 H 44.66086470079955 31.95796474769797 39.56200891479196 H 0.0 **** 0.06
37406 C 49.085594472348475 27.01945099442495 10.726298142192974 C 0.0 **** -0.24
37407 H 49.33897747604152 26.015843191944995 11.068066338969828 H 0.0 **** 0.06
37408 H 49.525510599798054 27.191286827889684 9.743650018792735 H 0.0 **** 0.06
37409 H 49.47576778965191 27.752554816862443 11.433034782344293 H 0.0 **** 0.06
37410 H 48.00190509328473 27.11875742625879 10.662324436478087 H 0.0 **** 0.06
37411 C 125.83437685173632 113.7802438462245 53.78355637942818 C 0.0 **** -0.24
37412 H 125.54012342839388 114.18915329064725 52.81701199544071 H 0.0 **** 0.06
37413 H 125.04234240135659 113.13138657258327 54.15976086019501 H 0.0 **** 0.06
37414 H 126.00268060081098 114.59501315283995 54.48680940910717 H 0.0 **** 0.06
37415 H 126.75249313456428 113.20336059288664 53.669327239191475 H 0.0 **** 0.06
37416 C 86.43988424688226 125.17039980244269 102.73848527868265 C 0.0 **** -0.24
37417 H 86.87064598461166 124.30254546587366 102.2395882797633 H 0.0 **** 0.06
37418 H 86.49880590290746 126.03613693866848 102.07796384454316 H 0.0 **** 0.06
37419 H 86.99262346095409 125.37378361575337 103.65536336327447 H 0.0 **** 0.06
37420 H 85.39647095201963 124.96908308809994 102.98089883836832 H 0.0 **** 0.06
37421 C 98.27397822979061 133.30359026364624 33.24385058819928 C 0.0 **** -0.24
37422 H 98.9150589330967 132.43697079011386 33.40969192006088 H 0.0 **** 0.06
37423 H 98.82862622415934 134.21389216408323 33.47123596361007 H 0.0 **** 0.06
37424 H 97.39992934769685 133.23796721652317 33.89136290714066 H 0.0 **** 0.06
37425 H 97.95410509858199 133.32368846927218 32.20158126228779 H 0.0 **** 0.06
37426 C 27.610996790809345 125.6707412844058 53.13026458452235 C 0.0 **** -0.24
37427 H 26.87168855191304 124.92378485945869 52.841313922925934 H 0.0 **** 0.06
37428 H 28.173797931253837 125.98321893914067 52.250234080683185 H 0.0 **** 0.06
37429 H 28.292005829622404 125.24197045896486 53.86480817549244 H 0.0 **** 0.06
37430 H 27.104972402731214 126.53316764987416 53.563699846462896 H 0.0 **** 0.06
37431 C 89.3548194077038 57.473305112145155 135.05946152947163 C 0.0 **** -0.24
37432 H 89.59921173578789 56.45938884166131 135.37699148138202 H 0.0 **** 0.06
37433 H 88.64593142482322 57.432530501910165 134.23136467197622 H 0.0 **** 0.06
37434 H 90.26340975515292 57.98114294468405 134.73576354758276 H 0.0 **** 0.06
37435 H 88.91087869544936 58.01659841828453 135.8925839741705 H 0.0 **** 0.06
37436 C 62.35801056199736 72.91631120430134 123.55162031793083 C 0.0 **** -0.24
37437 H 62.710622802954276 72.6527661775277 122.55433916388034 H 0.0 **** 0.06
37438 H 61.28357114698909 72.74178041718966 123.61501626923501 H 0.0 **** 0.06
37439 H 62.56726279650303 73.96908844224583 123.74425910947474 H 0.0 **** 0.06
37440 H 62.87008395790019 72.30238972342877 124.29249231098913 H 0.0 **** 0.06
37441 C 74.63774953766077 33.29354786996884 25.701286204175325 C 0.0 **** -0.24
37442 H 74.1821493271483 34.01263478644722 26.381617365472145 H 0.0 **** 0.06
37443 H 75.6263013336599 33.64790005620771 25.4065371421566 H 0.0 **** 0.06
37444 H 74.01103084519403 33.18514274926879 24.815742811359485 H 0.0 **** 0.06
37445 H 74.73088134703964 32.3288451349036 26.200549845392146 H 0.0 **** 0.06
37446 C 33.572780084870516 130.02790015185218 25.019318564649552 C 0.0 **** -0.24
37447 H 33.96653364074231 130.46657130574496 24.10179043166511 H 0.0 **** 0.06
37448 H 32.83845632316226 129.26266082169641 24.770044840649348 H 0.0 **** 0.06
37449 H 33.09886660673901 130.80573060064242 25.619172656889248 H 0.0 **** 0.06
37450 H 34.38854920161651 129.57926000806955 25.58557892810171 H 0.0 **** 0.06
37451 C 92.82458941247165 58.00264453791192 52.216503170684405 C 0.0 **** -0.24
37452 H 93.80309912089768 57.889480226146304 51.7508019709187 H 0.0 **** 0.06
37453 H 92.04864468725583 57.71726789350288 51.50507777889021 H 0.0 **** 0.06
37454 H 92.68150672144878 59.04081460957394 52.51378122250253 H 0.0 **** 0.06
37455 H 92.76441953510476 57.36089274200421 53.09620444811634 H 0.0 **** 0.06
37456 C 5.972586284563704 21.575155630448904 134.99021006946526 C 0.0 **** -0.24
37457 H 6.638667491504503 22.436013474558422 134.93008793084124 H 0.0 **** 0.06
37458 H 5.011259139702421 21.82784759677611 134.54319112144879 H 0.0 **** 0.06
37459 H 5.827325746720028 21.301808753926707 136.03551860813155 H 0.0 **** 0.06
37460 H 6.4144800900462755 20.736532319191383 134.45280441809967 H 0.0 **** 0.06
37461 C 26.195450052633134 59.15584761555604 14.91146138934485 C 0.0 **** -0.24
37462 H 25.75513768520875 59.789633073555194 15.681293240267706 H 0.0 **** 0.06
37463 H 26.309697926277437 58.14300368238992 15.29722249988373 H 0.0 **** 0.06
37464 H 27.170834701604548 59.55104125550935 14.628847157750442 H 0.0 **** 0.06
37465 H 25.54257272457241 59.14004795588181 14.03799834552666 H 0.0 **** 0.06
37466 C 8.73915093507577 95.1862027534924 125.4003046322307 C 0.0 **** -0.24
37467 H 9.365933218881025 94.71933102191375 126.16055317664302 H 0.0 **** 0.06
37468 H 8.094643571464928 94.43179443016834 124.94912794748839 H 0.0 **** 0.06
37469 H 9.370625715392663 95.6325280566408 124.63309910796215 H 0.0 **** 0.06
37470 H 8.125383679991529 95.9599666482919 125.86136780446967 H 0.0 **** 0.06
37471 C 22.106154896337557 13.285224032684713 63.61526309085036 C 0.0 **** -0.24
37472 H 21.02084055705825 13.198141279050144 63.56786663645792 H 0.0 **** 0.06
37473 H 22.512903894187048 12.451036425220533 64.1860268799951 H 0.0 **** 0.06
37474 H 22.374863292098894 14.223489400743055 64.09991031078465 H 0.0 **** 0.06
37475 H 22.515335196830506 13.268675631874668 62.6049370491246 H 0.0 **** 0.06
37476 C 81.82986908516352 108.48297792927318 7.749694805739214 C 0.0 **** -0.24
37477 H 82.65983600128772 107.88989052807007 7.366479090535243 H 0.0 **** 0.06
37478 H 81.23375409851022 107.87553507832806 8.4324599768367 H 0.0 **** 0.06
37479 H 81.20624919745792 108.81450256555017 6.919205352138267 H 0.0 **** 0.06
37480 H 82.21819446681991 109.35102936651182 8.280727835655622 H 0.0 **** 0.06
37481 C 65.3309792000336 53.14912871217413 96.51278771787294 C 0.0 **** -0.24
37482 H 65.55530349853665 52.567387670134096 95.61889062270146 H 0.0 **** 0.06
37483 H 64.97849571645222 54.13906780583751 96.22241370592324 H 0.0 **** 0.06
37484 H 66.23213525316918 53.24565186928366 97.11767950354593 H 0.0 **** 0.06
37485 H 64.55712108215376 52.64245708938448 97.0898315314068 H 0.0 **** 0.06
37486 C 86.22511684568958 81.60368793122232 70.86006681851609 C 0.0 **** -0.24
37487 H 85.76552964381847 81.68117039207644 69.87494950854231 H 0.0 **** 0.06
37488 H 86.29701444605672 82.5963235828778 71.30625324627577 H 0.0 **** 0.06
37489 H 87.22213745385291 81.17562613220343 70.76316481179555 H 0.0 **** 0.06
37490 H 85.61441220107855 80.96188963841765 71.49568375190825 H 0.0 **** 0.06
37491 C 129.08350466350942 134.67243088889336 59.17966995943311 C 0.0 **** -0.24
37492 H 129.4088668203347 135.69786356282407 59.35511329027372 H 0.0 **** 0.06
37493 H 128.45557182684772 134.6379011460576 58.28919529563905 H 0.0 **** 0.06
37494 H 128.51361750592034 134.32047575428302 60.0405615614045 H 0.0 **** 0.06
37495 H 129.9550312048476 134.03421018709437 59.03595545344854 H 0.0 **** 0.06
37496 C 5.550130189110622 91.23523102616232 2.792591791179518 C 0.0 **** -0.24
37497 H 5.570686112519375 90.190280065846 3.1019572773931543 H 0.0 **** 0.06
37498 H 4.544993722221346 91.49567189979857 2.4612365620124876 H 0.0 **** 0.06
37499 H 6.253084191218406 91.384274146365 1.9726638028745356 H 0.0 **** 0.06
37500 H 5.831839171640034 91.86883002712277 3.6329270603172006 H 0.0 **** 0.06
@<TRIPOS>BOND
1 1 2 28
2 1 3 28
3 1 4 28
4 1 5 28
5 6 7 28
6 6 8 28
7 6 9 28
8 6 10 28
9 11 12 28
10 11 13 28
11 11 14 28
12 11 15 28
13 16 17 28
14 16 18 28
15 16 19 28
16 16 20 28
17 21 22 28
18 21 23 28
19 21 24 28
20 21 25 28
21 26 27 28
22 26 28 28
23 26 29 28
24 26 30 28
25 31 32 28
26 31 33 28
27 31 34 28
28 31 35 28
29 36 37 28
30 36 38 28
31 36 39 28
32 36 40 28
33 41 42 28
34 41 43 28
35 41 44 28
36 41 45 28
37 46 47 28
38 46 48 28
39 46 49 28
40 46 50 28
41 51 52 28
42 51 53 28
43 51 54 28
44 51 55 28
45 56 57 28
46 56 58 28
47 56 59 28
48 56 60 28
49 61 62 28
50 61 63 28
51 61 64 28
52 61 65 28
53 66 67 28
54 66 68 28
55 66 69 28
56 66 70 28
57 71 72 28
58 71 73 28
59 71 74 28
60 71 75 28
61 76 77 28
62 76 78 28
63 76 79 28
64 76 80 28
65 81 82 28
66 81 83 28
67 81 84 28
68 81 85 28
69 86 87 28
70 86 88 28
71 86 89 28
72 86 90 28
73 91 92 28
74 91 93 28
75 91 94 28
76 91 95 28
77 96 97 28
78 96 98 28
79 96 99 28
80 96 100 28
81 101 102 28
82 101 103 28
83 101 104 28
84 101 105 28
85 106 107 28
86 106 108 28
87 106 109 28
88 106 110 28
89 111 112 28
90 111 113 28
91 111 114 28
92 111 115 28
93 116 117 28
94 116 118 28
95 116 119 28
96 116 120 28
97 121 122 28
98 121 123 28
99 121 124 28
100 121 125 28
101 126 127 28
102 126 128 28
103 126 129 28
104 126 130 28
105 131 132 28
106 131 133 28
107 131 134 28
108 131 135 28
109 136 137 28
110 136 138 28
111 136 139 28
112 136 140 28
113 141 142 28
114 141 143 28
115 141 144 28
116 141 145 28
117 146 147 28
118 146 148 28
119 146 149 28
120 146 150 28
121 151 152 28
122 151 153 28
123 151 154 28
124 151 155 28
125 156 157 28
126 156 158 28
127 156 159 28
128 156 160 28
129 161 162 28
130 161 163 28
131 161 164 28
132 161 165 28
133 166 167 28
134 166 168 28
135 166 169 28
136 166 170 28
137 171 172 28
138 171 173 28
139 171 174 28
140 171 175 28
141 176 177 28
142 176 178 28
143 176 179 28
144 176 180 28
145 181 182 28
146 181 183 28
147 181 184 28
148 181 185 28
149 186 187 28
150 186 188 28
151 186 189 28
152 186 190 28
153 191 192 28
154 191 193 28
155 191 194 28
156 191 195 28
157 196 197 28
158 196 198 28
159 196 199 28
160 196 200 28
161 201 202 28
162 201 203 28
163 201 204 28
164 201 205 28
165 206 207 28
166 206 208 28
167 206 209 28
168 206 210 28
169 211 212 28
170 211 213 28
171 211 214 28
172 211 215 28
173 216 217 28
174 216 218 28
175 216 219 28
176 216 220 28
177 221 222 28
178 221 223 28
179 221 224 28
180 221 225 28
181 226 227 28
182 226 228 28
183 226 229 28
184 226 230 28
185 231 232 28
186 231 233 28
187 231 234 28
188 231 235 28
189 236 237 28
190 236 238 28
191 236 239 28
192 236 240 28
193 241 242 28
194 241 243 28
195 241 244 28
196 241 245 28
197 246 247 28
198 246 248 28
199 246 249 28
200 246 250 28
201 251 252 28
202 251 253 28
203 251 254 28
204 251 255 28
205 256 257 28
206 256 258 28
207 256 259 28
208 256 260 28
209 261 262 28
210 261 263 28
211 261 264 28
212 261 265 28
213 266 267 28
214 266 268 28
215 266 269 28
216 266 270 28
217 271 272 28
218 271 273 28
219 271 274 28
220 271 275 28
221 276 277 28
222 276 278 28
223 276 279 28
224 276 280 28
225 281 282 28
226 281 283 28
227 281 284 28
228 281 285 28
229 286 287 28
230 286 288 28
231 286 289 28
232 286 290 28
233 291 292 28
234 291 293 28
235 291 294 28
236 291 295 28
237 296 297 28
238 296 298 28
239 296 299 28
240 296 300 28
241 301 302 28
242 301 303 28
243 301 304 28
244 301 305 28
245 306 307 28
246 306 308 28
247 306 309 28
248 306 310 28
249 311 312 28
250 311 313 28
251 311 314 28
252 311 315 28
253 316 317 28
254 316 318 28
255 316 319 28
256 316 320 28
257 321 322 28
258 321 323 28
259 321 324 28
260 321 325 28
261 326 327 28
262 326 328 28
263 326 329 28
264 326 330 28
265 331 332 28
266 331 333 28
267 331 334 28
268 331 335 28
269 336 337 28
270 336 338 28
271 336 339 28
272 336 340 28
273 341 342 28
274 341 343 28
275 341 344 28
276 341 345 28
277 346 347 28
278 346 348 28
279 346 349 28
280 346 350 28
281 351 352 28
282 351 353 28
283 351 354 28
284 351 355 28
285 356 357 28
286 356 358 28
287 356 359 28
288 356 360 28
289 361 362 28
290 361 363 28
291 361 364 28
292 361 365 28
293 366 367 28
294 366 368 28
295 366 369 28
296 366 370 28
297 371 372 28
298 371 373 28
299 371 374 28
300 371 375 28
301 376 377 28
302 376 378 28
303 376 379 28
304 376 380 28
305 381 382 28
306 381 383 28
307 381 384 28
308 381 385 28
309 386 387 28
310 386 388 28
311 386 389 28
312 386 390 28
313 391 392 28
314 391 393 28
315 391 394 28
316 391 395 28
317 396 397 28
318 396 398 28
319 396 399 28
320 396 400 28
321 401 402 28
322 401 403 28
323 401 404 28
324 401 405 28
325 406 407 28
326 406 408 28
327 406 409 28
328 406 410 28
329 411 412 28
330 411 413 28
331 411 414 28
332 411 415 28
333 416 417 28
334 416 418 28
335 416 419 28
336 416 420 28
337 421 422 28
338 421 423 28
339 421 424 28
340 421 425 28
341 426 427 28
342 426 428 28
343 426 429 28
344 426 430 28
345 431 432 28
346 431 433 28
347 431 434 28
348 431 435 28
349 436 437 28
350 436 438 28
351 436 439 28
352 436 440 28
353 441 442 28
354 441 443 28
355 441 444 28
356 441 445 28
357 446 447 28
358 446 448 28
359 446 449 28
360 446 450 28
361 451 452 28
362 451 453 28
363 451 454 28
364 451 455 28
365 456 457 28
366 456 458 28
367 456 459 28
368 456 460 28
369 461 462 28
370 461 463 28
371 461 464 28
372 461 465 28
373 466 467 28
374 466 468 28
375 466 469 28
376 466 470 28
377 471 472 28
378 471 473 28
379 471 474 28
380 471 475 28
381 476 477 28
382 476 478 28
383 476 479 28
384 476 480 28
385 481 482 28
386 481 483 28
387 481 484 28
388 481 485 28
389 486 487 28
390 486 488 28
391 486 489 28
392 486 490 28
393 491 492 28
394 491 493 28
395 491 494 28
396 491 495 28
397 496 497 28
398 496 498 28
399 496 499 28
400 496 500 28
401 501 502 28
402 501 503 28
403 501 504 28
404 501 505 28
405 506 507 28
406 506 508 28
407 506 509 28
408 506 510 28
409 511 512 28
410 511 513 28
411 511 514 28
412 511 515 28
413 516 517 28
414 516 518 28
415 516 519 28
416 516 520 28
417 521 522 28
418 521 523 28
419 521 524 28
420 521 525 28
421 526 527 28
422 526 528 28
423 526 529 28
424 526 530 28
425 531 532 28
426 531 533 28
427 531 534 28
428 531 535 28
429 536 537 28
430 536 538 28
431 536 539 28
432 536 540 28
433 541 542 28
434 541 543 28
435 541 544 28
436 541 545 28
437 546 547 28
438 546 548 28
439 546 549 28
440 546 550 28
441 551 552 28
442 551 553 28
443 551 554 28
444 551 555 28
445 556 557 28
446 556 558 28
447 556 559 28
448 556 560 28
449 561 562 28
450 561 563 28
451 561 564 28
452 561 565 28
453 566 567 28
454 566 568 28
455 566 569 28
456 566 570 28
457 571 572 28
458 571 573 28
459 571 574 28
460 571 575 28
461 576 577 28
462 576 578 28
463 576 579 28
464 576 580 28
465 581 582 28
466 581 583 28
467 581 584 28
468 581 585 28
469 586 587 28
470 586 588 28
471 586 589 28
472 586 590 28
473 591 592 28
474 591 593 28
475 591 594 28
476 591 595 28
477 596 597 28
478 596 598 28
479 596 599 28
480 596 600 28
481 601 602 28
482 601 603 28
483 601 604 28
484 601 605 28
485 606 607 28
486 606 608 28
487 606 609 28
488 606 610 28
489 611 612 28
490 611 613 28
491 611 614 28
492 611 615 28
493 616 617 28
494 616 618 28
495 616 619 28
496 616 620 28
497 621 622 28
498 621 623 28
499 621 624 28
500 621 625 28
501 626 627 28
502 626 628 28
503 626 629 28
504 626 630 28
505 631 632 28
506 631 633 28
507 631 634 28
508 631 635 28
509 636 637 28
510 636 638 28
511 636 639 28
512 636 640 28
513 641 642 28
514 641 643 28
515 641 644 28
516 641 645 28
517 646 647 28
518 646 648 28
519 646 649 28
520 646 650 28
521 651 652 28
522 651 653 28
523 651 654 28
524 651 655 28
525 656 657 28
526 656 658 28
527 656 659 28
528 656 660 28
529 661 662 28
530 661 663 28
531 661 664 28
532 661 665 28
533 666 667 28
534 666 668 28
535 666 669 28
536 666 670 28
537 671 672 28
538 671 673 28
539 671 674 28
540 671 675 28
541 676 677 28
542 676 678 28
543 676 679 28
544 676 680 28
545 681 682 28
546 681 683 28
547 681 684 28
548 681 685 28
549 686 687 28
550 686 688 28
551 686 689 28
552 686 690 28
553 691 692 28
554 691 693 28
555 691 694 28
556 691 695 28
557 696 697 28
558 696 698 28
559 696 699 28
560 696 700 28
561 701 702 28
562 701 703 28
563 701 704 28
564 701 705 28
565 706 707 28
566 706 708 28
567 706 709 28
568 706 710 28
569 711 712 28
570 711 713 28
571 711 714 28
572 711 715 28
573 716 717 28
574 716 718 28
575 716 719 28
576 716 720 28
577 721 722 28
578 721 723 28
579 721 724 28
580 721 725 28
581 726 727 28
582 726 728 28
583 726 729 28
584 726 730 28
585 731 732 28
586 731 733 28
587 731 734 28
588 731 735 28
589 736 737 28
590 736 738 28
591 736 739 28
592 736 740 28
593 741 742 28
594 741 743 28
595 741 744 28
596 741 745 28
597 746 747 28
598 746 748 28
599 746 749 28
600 746 750 28
601 751 752 28
602 751 753 28
603 751 754 28
604 751 755 28
605 756 757 28
606 756 758 28
607 756 759 28
608 756 760 28
609 761 762 28
610 761 763 28
611 761 764 28
612 761 765 28
613 766 767 28
614 766 768 28
615 766 769 28
616 766 770 28
617 771 772 28
618 771 773 28
619 771 774 28
620 771 775 28
621 776 777 28
622 776 778 28
623 776 779 28
624 776 780 28
625 781 782 28
626 781 783 28
627 781 784 28
628 781 785 28
629 786 787 28
630 786 788 28
631 786 789 28
632 786 790 28
633 791 792 28
634 791 793 28
635 791 794 28
636 791 795 28
637 796 797 28
638 796 798 28
639 796 799 28
640 796 800 28
641 801 802 28
642 801 803 28
643 801 804 28
644 801 805 28
645 806 807 28
646 806 808 28
647 806 809 28
648 806 810 28
649 811 812 28
650 811 813 28
651 811 814 28
652 811 815 28
653 816 817 28
654 816 818 28
655 816 819 28
656 816 820 28
657 821 822 28
658 821 823 28
659 821 824 28
660 821 825 28
661 826 827 28
662 826 828 28
663 826 829 28
664 826 830 28
665 831 832 28
666 831 833 28
667 831 834 28
668 831 835 28
669 836 837 28
670 836 838 28
671 836 839 28
672 836 840 28
673 841 842 28
674 841 843 28
675 841 844 28
676 841 845 28
677 846 847 28
678 846 848 28
679 846 849 28
680 846 850 28
681 851 852 28
682 851 853 28
683 851 854 28
684 851 855 28
685 856 857 28
686 856 858 28
687 856 859 28
688 856 860 28
689 861 862 28
690 861 863 28
691 861 864 28
692 861 865 28
693 866 867 28
694 866 868 28
695 866 869 28
696 866 870 28
697 871 872 28
698 871 873 28
699 871 874 28
700 871 875 28
701 876 877 28
702 876 878 28
703 876 879 28
704 876 880 28
705 881 882 28
706 881 883 28
707 881 884 28
708 881 885 28
709 886 887 28
710 886 888 28
711 886 889 28
712 886 890 28
713 891 892 28
714 891 893 28
715 891 894 28
716 891 895 28
717 896 897 28
718 896 898 28
719 896 899 28
720 896 900 28
721 901 902 28
722 901 903 28
723 901 904 28
724 901 905 28
725 906 907 28
726 906 908 28
727 906 909 28
728 906 910 28
729 911 912 28
730 911 913 28
731 911 914 28
732 911 915 28
733 916 917 28
734 916 918 28
735 916 919 28
736 916 920 28
737 921 922 28
738 921 923 28
739 921 924 28
740 921 925 28
741 926 927 28
742 926 928 28
743 926 929 28
744 926 930 28
745 931 932 28
746 931 933 28
747 931 934 28
748 931 935 28
749 936 937 28
750 936 938 28
751 936 939 28
752 936 940 28
753 941 942 28
754 941 943 28
755 941 944 28
756 941 945 28
757 946 947 28
758 946 948 28
759 946 949 28
760 946 950 28
761 951 952 28
762 951 953 28
763 951 954 28
764 951 955 28
765 956 957 28
766 956 958 28
767 956 959 28
768 956 960 28
769 961 962 28
770 961 963 28
771 961 964 28
772 961 965 28
773 966 967 28
774 966 968 28
775 966 969 28
776 966 970 28
777 971 972 28
778 971 973 28
779 971 974 28
780 971 975 28
781 976 977 28
782 976 978 28
783 976 979 28
784 976 980 28
785 981 982 28
786 981 983 28
787 981 984 28
788 981 985 28
789 986 987 28
790 986 988 28
791 986 989 28
792 986 990 28
793 991 992 28
794 991 993 28
795 991 994 28
796 991 995 28
797 996 997 28
798 996 998 28
799 996 999 28
800 996 1000 28
801 1001 1002 28
802 1001 1003 28
803 1001 1004 28
804 1001 1005 28
805 1006 1007 28
806 1006 1008 28
807 1006 1009 28
808 1006 1010 28
809 1011 1012 28
810 1011 1013 28
811 1011 1014 28
812 1011 1015 28
813 1016 1017 28
814 1016 1018 28
815 1016 1019 28
816 1016 1020 28
817 1021 1022 28
818 1021 1023 28
819 1021 1024 28
820 1021 1025 28
821 1026 1027 28
822 1026 1028 28
823 1026 1029 28
824 1026 1030 28
825 1031 1032 28
826 1031 1033 28
827 1031 1034 28
828 1031 1035 28
829 1036 1037 28
830 1036 1038 28
831 1036 1039 28
832 1036 1040 28
833 1041 1042 28
834 1041 1043 28
835 1041 1044 28
836 1041 1045 28
837 1046 1047 28
838 1046 1048 28
839 1046 1049 28
840 1046 1050 28
841 1051 1052 28
842 1051 1053 28
843 1051 1054 28
844 1051 1055 28
845 1056 1057 28
846 1056 1058 28
847 1056 1059 28
848 1056 1060 28
849 1061 1062 28
850 1061 1063 28
851 1061 1064 28
852 1061 1065 28
853 1066 1067 28
854 1066 1068 28
855 1066 1069 28
856 1066 1070 28
857 1071 1072 28
858 1071 1073 28
859 1071 1074 28
860 1071 1075 28
861 1076 1077 28
862 1076 1078 28
863 1076 1079 28
864 1076 1080 28
865 1081 1082 28
866 1081 1083 28
867 1081 1084 28
868 1081 1085 28
869 1086 1087 28
870 1086 1088 28
871 1086 1089 28
872 1086 1090 28
873 1091 1092 28
874 1091 1093 28
875 1091 1094 28
876 1091 1095 28
877 1096 1097 28
878 1096 1098 28
879 1096 1099 28
880 1096 1100 28
881 1101 1102 28
882 1101 1103 28
883 1101 1104 28
884 1101 1105 28
885 1106 1107 28
886 1106 1108 28
887 1106 1109 28
888 1106 1110 28
889 1111 1112 28
890 1111 1113 28
891 1111 1114 28
892 1111 1115 28
893 1116 1117 28
894 1116 1118 28
895 1116 1119 28
896 1116 1120 28
897 1121 1122 28
898 1121 1123 28
899 1121 1124 28
900 1121 1125 28
901 1126 1127 28
902 1126 1128 28
903 1126 1129 28
904 1126 1130 28
905 1131 1132 28
906 1131 1133 28
907 1131 1134 28
908 1131 1135 28
909 1136 1137 28
910 1136 1138 28
911 1136 1139 28
912 1136 1140 28
913 1141 1142 28
914 1141 1143 28
915 1141 1144 28
916 1141 1145 28
917 1146 1147 28
918 1146 1148 28
919 1146 1149 28
920 1146 1150 28
921 1151 1152 28
922 1151 1153 28
923 1151 1154 28
924 1151 1155 28
925 1156 1157 28
926 1156 1158 28
927 1156 1159 28
928 1156 1160 28
929 1161 1162 28
930 1161 1163 28
931 1161 1164 28
932 1161 1165 28
933 1166 1167 28
934 1166 1168 28
935 1166 1169 28
936 1166 1170 28
937 1171 1172 28
938 1171 1173 28
939 1171 1174 28
940 1171 1175 28
941 1176 1177 28
942 1176 1178 28
943 1176 1179 28
944 1176 1180 28
945 1181 1182 28
946 1181 1183 28
947 1181 1184 28
948 1181 1185 28
949 1186 1187 28
950 1186 1188 28
951 1186 1189 28
952 1186 1190 28
953 1191 1192 28
954 1191 1193 28
955 1191 1194 28
956 1191 1195 28
957 1196 1197 28
958 1196 1198 28
959 1196 1199 28
960 1196 1200 28
961 1201 1202 28
962 1201 1203 28
963 1201 1204 28
964 1201 1205 28
965 1206 1207 28
966 1206 1208 28
967 1206 1209 28
968 1206 1210 28
969 1211 1212 28
970 1211 1213 28
971 1211 1214 28
972 1211 1215 28
973 1216 1217 28
974 1216 1218 28
975 1216 1219 28
976 1216 1220 28
977 1221 1222 28
978 1221 1223 28
979 1221 1224 28
980 1221 1225 28
981 1226 1227 28
982 1226 1228 28
983 1226 1229 28
984 1226 1230 28
985 1231 1232 28
986 1231 1233 28
987 1231 1234 28
988 1231 1235 28
989 1236 1237 28
990 1236 1238 28
991 1236 1239 28
992 1236 1240 28
993 1241 1242 28
994 1241 1243 28
995 1241 1244 28
996 1241 1245 28
997 1246 1247 28
998 1246 1248 28
999 1246 1249 28
1000 1246 1250 28
1001 1251 1252 28
1002 1251 1253 28
1003 1251 1254 28
1004 1251 1255 28
1005 1256 1257 28
1006 1256 1258 28
1007 1256 1259 28
1008 1256 1260 28
1009 1261 1262 28
1010 1261 1263 28
1011 1261 1264 28
1012 1261 1265 28
1013 1266 1267 28
1014 1266 1268 28
1015 1266 1269 28
1016 1266 1270 28
1017 1271 1272 28
1018 1271 1273 28
1019 1271 1274 28
1020 1271 1275 28
1021 1276 1277 28
1022 1276 1278 28
1023 1276 1279 28
1024 1276 1280 28
1025 1281 1282 28
1026 1281 1283 28
1027 1281 1284 28
1028 1281 1285 28
1029 1286 1287 28
1030 1286 1288 28
1031 1286 1289 28
1032 1286 1290 28
1033 1291 1292 28
1034 1291 1293 28
1035 1291 1294 28
1036 1291 1295 28
1037 1296 1297 28
1038 1296 1298 28
1039 1296 1299 28
1040 1296 1300 28
1041 1301 1302 28
1042 1301 1303 28
1043 1301 1304 28
1044 1301 1305 28
1045 1306 1307 28
1046 1306 1308 28
1047 1306 1309 28
1048 1306 1310 28
1049 1311 1312 28
1050 1311 1313 28
1051 1311 1314 28
1052 1311 1315 28
1053 1316 1317 28
1054 1316 1318 28
1055 1316 1319 28
1056 1316 1320 28
1057 1321 1322 28
1058 1321 1323 28
1059 1321 1324 28
1060 1321 1325 28
1061 1326 1327 28
1062 1326 1328 28
1063 1326 1329 28
1064 1326 1330 28
1065 1331 1332 28
1066 1331 1333 28
1067 1331 1334 28
1068 1331 1335 28
1069 1336 1337 28
1070 1336 1338 28
1071 1336 1339 28
1072 1336 1340 28
1073 1341 1342 28
1074 1341 1343 28
1075 1341 1344 28
1076 1341 1345 28
1077 1346 1347 28
1078 1346 1348 28
1079 1346 1349 28
1080 1346 1350 28
1081 1351 1352 28
1082 1351 1353 28
1083 1351 1354 28
1084 1351 1355 28
1085 1356 1357 28
1086 1356 1358 28
1087 1356 1359 28
1088 1356 1360 28
1089 1361 1362 28
1090 1361 1363 28
1091 1361 1364 28
1092 1361 1365 28
1093 1366 1367 28
1094 1366 1368 28
1095 1366 1369 28
1096 1366 1370 28
1097 1371 1372 28
1098 1371 1373 28
1099 1371 1374 28
1100 1371 1375 28
1101 1376 1377 28
1102 1376 1378 28
1103 1376 1379 28
1104 1376 1380 28
1105 1381 1382 28
1106 1381 1383 28
1107 1381 1384 28
1108 1381 1385 28
1109 1386 1387 28
1110 1386 1388 28
1111 1386 1389 28
1112 1386 1390 28
1113 1391 1392 28
1114 1391 1393 28
1115 1391 1394 28
1116 1391 1395 28
1117 1396 1397 28
1118 1396 1398 28
1119 1396 1399 28
1120 1396 1400 28
1121 1401 1402 28
1122 1401 1403 28
1123 1401 1404 28
1124 1401 1405 28
1125 1406 1407 28
1126 1406 1408 28
1127 1406 1409 28
1128 1406 1410 28
1129 1411 1412 28
1130 1411 1413 28
1131 1411 1414 28
1132 1411 1415 28
1133 1416 1417 28
1134 1416 1418 28
1135 1416 1419 28
1136 1416 1420 28
1137 1421 1422 28
1138 1421 1423 28
1139 1421 1424 28
1140 1421 1425 28
1141 1426 1427 28
1142 1426 1428 28
1143 1426 1429 28
1144 1426 1430 28
1145 1431 1432 28
1146 1431 1433 28
1147 1431 1434 28
1148 1431 1435 28
1149 1436 1437 28
1150 1436 1438 28
1151 1436 1439 28
1152 1436 1440 28
1153 1441 1442 28
1154 1441 1443 28
1155 1441 1444 28
1156 1441 1445 28
1157 1446 1447 28
1158 1446 1448 28
1159 1446 1449 28
1160 1446 1450 28
1161 1451 1452 28
1162 1451 1453 28
1163 1451 1454 28
1164 1451 1455 28
1165 1456 1457 28
1166 1456 1458 28
1167 1456 1459 28
1168 1456 1460 28
1169 1461 1462 28
1170 1461 1463 28
1171 1461 1464 28
1172 1461 1465 28
1173 1466 1467 28
1174 1466 1468 28
1175 1466 1469 28
1176 1466 1470 28
1177 1471 1472 28
1178 1471 1473 28
1179 1471 1474 28
1180 1471 1475 28
1181 1476 1477 28
1182 1476 1478 28
1183 1476 1479 28
1184 1476 1480 28
1185 1481 1482 28
1186 1481 1483 28
1187 1481 1484 28
1188 1481 1485 28
1189 1486 1487 28
1190 1486 1488 28
1191 1486 1489 28
1192 1486 1490 28
1193 1491 1492 28
1194 1491 1493 28
1195 1491 1494 28
1196 1491 1495 28
1197 1496 1497 28
1198 1496 1498 28
1199 1496 1499 28
1200 1496 1500 28
1201 1501 1502 28
1202 1501 1503 28
1203 1501 1504 28
1204 1501 1505 28
1205 1506 1507 28
1206 1506 1508 28
1207 1506 1509 28
1208 1506 1510 28
1209 1511 1512 28
1210 1511 1513 28
1211 1511 1514 28
1212 1511 1515 28
1213 1516 1517 28
1214 1516 1518 28
1215 1516 1519 28
1216 1516 1520 28
1217 1521 1522 28
1218 1521 1523 28
1219 1521 1524 28
1220 1521 1525 28
1221 1526 1527 28
1222 1526 1528 28
1223 1526 1529 28
1224 1526 1530 28
1225 1531 1532 28
1226 1531 1533 28
1227 1531 1534 28
1228 1531 1535 28
1229 1536 1537 28
1230 1536 1538 28
1231 1536 1539 28
1232 1536 1540 28
1233 1541 1542 28
1234 1541 1543 28
1235 1541 1544 28
1236 1541 1545 28
1237 1546 1547 28
1238 1546 1548 28
1239 1546 1549 28
1240 1546 1550 28
1241 1551 1552 28
1242 1551 1553 28
1243 1551 1554 28
1244 1551 1555 28
1245 1556 1557 28
1246 1556 1558 28
1247 1556 1559 28
1248 1556 1560 28
1249 1561 1562 28
1250 1561 1563 28
1251 1561 1564 28
1252 1561 1565 28
1253 1566 1567 28
1254 1566 1568 28
1255 1566 1569 28
1256 1566 1570 28
1257 1571 1572 28
1258 1571 1573 28
1259 1571 1574 28
1260 1571 1575 28
1261 1576 1577 28
1262 1576 1578 28
1263 1576 1579 28
1264 1576 1580 28
1265 1581 1582 28
1266 1581 1583 28
1267 1581 1584 28
1268 1581 1585 28
1269 1586 1587 28
1270 1586 1588 28
1271 1586 1589 28
1272 1586 1590 28
1273 1591 1592 28
1274 1591 1593 28
1275 1591 1594 28
1276 1591 1595 28
1277 1596 1597 28
1278 1596 1598 28
1279 1596 1599 28
1280 1596 1600 28
1281 1601 1602 28
1282 1601 1603 28
1283 1601 1604 28
1284 1601 1605 28
1285 1606 1607 28
1286 1606 1608 28
1287 1606 1609 28
1288 1606 1610 28
1289 1611 1612 28
1290 1611 1613 28
1291 1611 1614 28
1292 1611 1615 28
1293 1616 1617 28
1294 1616 1618 28
1295 1616 1619 28
1296 1616 1620 28
1297 1621 1622 28
1298 1621 1623 28
1299 1621 1624 28
1300 1621 1625 28
1301 1626 1627 28
1302 1626 1628 28
1303 1626 1629 28
1304 1626 1630 28
1305 1631 1632 28
1306 1631 1633 28
1307 1631 1634 28
1308 1631 1635 28
1309 1636 1637 28
1310 1636 1638 28
1311 1636 1639 28
1312 1636 1640 28
1313 1641 1642 28
1314 1641 1643 28
1315 1641 1644 28
1316 1641 1645 28
1317 1646 1647 28
1318 1646 1648 28
1319 1646 1649 28
1320 1646 1650 28
1321 1651 1652 28
1322 1651 1653 28
1323 1651 1654 28
1324 1651 1655 28
1325 1656 1657 28
1326 1656 1658 28
1327 1656 1659 28
1328 1656 1660 28
1329 1661 1662 28
1330 1661 1663 28
1331 1661 1664 28
1332 1661 1665 28
1333 1666 1667 28
1334 1666 1668 28
1335 1666 1669 28
1336 1666 1670 28
1337 1671 1672 28
1338 1671 1673 28
1339 1671 1674 28
1340 1671 1675 28
1341 1676 1677 28
1342 1676 1678 28
1343 1676 1679 28
1344 1676 1680 28
1345 1681 1682 28
1346 1681 1683 28
1347 1681 1684 28
1348 1681 1685 28
1349 1686 1687 28
1350 1686 1688 28
1351 1686 1689 28
1352 1686 1690 28
1353 1691 1692 28
1354 1691 1693 28
1355 1691 1694 28
1356 1691 1695 28
1357 1696 1697 28
1358 1696 1698 28
1359 1696 1699 28
1360 1696 1700 28
1361 1701 1702 28
1362 1701 1703 28
1363 1701 1704 28
1364 1701 1705 28
1365 1706 1707 28
1366 1706 1708 28
1367 1706 1709 28
1368 1706 1710 28
1369 1711 1712 28
1370 1711 1713 28
1371 1711 1714 28
1372 1711 1715 28
1373 1716 1717 28
1374 1716 1718 28
1375 1716 1719 28
1376 1716 1720 28
1377 1721 1722 28
1378 1721 1723 28
1379 1721 1724 28
1380 1721 1725 28
1381 1726 1727 28
1382 1726 1728 28
1383 1726 1729 28
1384 1726 1730 28
1385 1731 1732 28
1386 1731 1733 28
1387 1731 1734 28
1388 1731 1735 28
1389 1736 1737 28
1390 1736 1738 28
1391 1736 1739 28
1392 1736 1740 28
1393 1741 1742 28
1394 1741 1743 28
1395 1741 1744 28
1396 1741 1745 28
1397 1746 1747 28
1398 1746 1748 28
1399 1746 1749 28
1400 1746 1750 28
1401 1751 1752 28
1402 1751 1753 28
1403 1751 1754 28
1404 1751 1755 28
1405 1756 1757 28
1406 1756 1758 28
1407 1756 1759 28
1408 1756 1760 28
1409 1761 1762 28
1410 1761 1763 28
1411 1761 1764 28
1412 1761 1765 28
1413 1766 1767 28
1414 1766 1768 28
1415 1766 1769 28
1416 1766 1770 28
1417 1771 1772 28
1418 1771 1773 28
1419 1771 1774 28
1420 1771 1775 28
1421 1776 1777 28
1422 1776 1778 28
1423 1776 1779 28
1424 1776 1780 28
1425 1781 1782 28
1426 1781 1783 28
1427 1781 1784 28
1428 1781 1785 28
1429 1786 1787 28
1430 1786 1788 28
1431 1786 1789 28
1432 1786 1790 28
1433 1791 1792 28
1434 1791 1793 28
1435 1791 1794 28
1436 1791 1795 28
1437 1796 1797 28
1438 1796 1798 28
1439 1796 1799 28
1440 1796 1800 28
1441 1801 1802 28
1442 1801 1803 28
1443 1801 1804 28
1444 1801 1805 28
1445 1806 1807 28
1446 1806 1808 28
1447 1806 1809 28
1448 1806 1810 28
1449 1811 1812 28
1450 1811 1813 28
1451 1811 1814 28
1452 1811 1815 28
1453 1816 1817 28
1454 1816 1818 28
1455 1816 1819 28
1456 1816 1820 28
1457 1821 1822 28
1458 1821 1823 28
1459 1821 1824 28
1460 1821 1825 28
1461 1826 1827 28
1462 1826 1828 28
1463 1826 1829 28
1464 1826 1830 28
1465 1831 1832 28
1466 1831 1833 28
1467 1831 1834 28
1468 1831 1835 28
1469 1836 1837 28
1470 1836 1838 28
1471 1836 1839 28
1472 1836 1840 28
1473 1841 1842 28
1474 1841 1843 28
1475 1841 1844 28
1476 1841 1845 28
1477 1846 1847 28
1478 1846 1848 28
1479 1846 1849 28
1480 1846 1850 28
1481 1851 1852 28
1482 1851 1853 28
1483 1851 1854 28
1484 1851 1855 28
1485 1856 1857 28
1486 1856 1858 28
1487 1856 1859 28
1488 1856 1860 28
1489 1861 1862 28
1490 1861 1863 28
1491 1861 1864 28
1492 1861 1865 28
1493 1866 1867 28
1494 1866 1868 28
1495 1866 1869 28
1496 1866 1870 28
1497 1871 1872 28
1498 1871 1873 28
1499 1871 1874 28
1500 1871 1875 28
1501 1876 1877 28
1502 1876 1878 28
1503 1876 1879 28
1504 1876 1880 28
1505 1881 1882 28
1506 1881 1883 28
1507 1881 1884 28
1508 1881 1885 28
1509 1886 1887 28
1510 1886 1888 28
1511 1886 1889 28
1512 1886 1890 28
1513 1891 1892 28
1514 1891 1893 28
1515 1891 1894 28
1516 1891 1895 28
1517 1896 1897 28
1518 1896 1898 28
1519 1896 1899 28
1520 1896 1900 28
1521 1901 1902 28
1522 1901 1903 28
1523 1901 1904 28
1524 1901 1905 28
1525 1906 1907 28
1526 1906 1908 28
1527 1906 1909 28
1528 1906 1910 28
1529 1911 1912 28
1530 1911 1913 28
1531 1911 1914 28
1532 1911 1915 28
1533 1916 1917 28
1534 1916 1918 28
1535 1916 1919 28
1536 1916 1920 28
1537 1921 1922 28
1538 1921 1923 28
1539 1921 1924 28
1540 1921 1925 28
1541 1926 1927 28
1542 1926 1928 28
1543 1926 1929 28
1544 1926 1930 28
1545 1931 1932 28
1546 1931 1933 28
1547 1931 1934 28
1548 1931 1935 28
1549 1936 1937 28
1550 1936 1938 28
1551 1936 1939 28
1552 1936 1940 28
1553 1941 1942 28
1554 1941 1943 28
1555 1941 1944 28
1556 1941 1945 28
1557 1946 1947 28
1558 1946 1948 28
1559 1946 1949 28
1560 1946 1950 28
1561 1951 1952 28
1562 1951 1953 28
1563 1951 1954 28
1564 1951 1955 28
1565 1956 1957 28
1566 1956 1958 28
1567 1956 1959 28
1568 1956 1960 28
1569 1961 1962 28
1570 1961 1963 28
1571 1961 1964 28
1572 1961 1965 28
1573 1966 1967 28
1574 1966 1968 28
1575 1966 1969 28
1576 1966 1970 28
1577 1971 1972 28
1578 1971 1973 28
1579 1971 1974 28
1580 1971 1975 28
1581 1976 1977 28
1582 1976 1978 28
1583 1976 1979 28
1584 1976 1980 28
1585 1981 1982 28
1586 1981 1983 28
1587 1981 1984 28
1588 1981 1985 28
1589 1986 1987 28
1590 1986 1988 28
1591 1986 1989 28
1592 1986 1990 28
1593 1991 1992 28
1594 1991 1993 28
1595 1991 1994 28
1596 1991 1995 28
1597 1996 1997 28
1598 1996 1998 28
1599 1996 1999 28
1600 1996 2000 28
1601 2001 2002 28
1602 2001 2003 28
1603 2001 2004 28
1604 2001 2005 28
1605 2006 2007 28
1606 2006 2008 28
1607 2006 2009 28
1608 2006 2010 28
1609 2011 2012 28
1610 2011 2013 28
1611 2011 2014 28
1612 2011 2015 28
1613 2016 2017 28
1614 2016 2018 28
1615 2016 2019 28
1616 2016 2020 28
1617 2021 2022 28
1618 2021 2023 28
1619 2021 2024 28
1620 2021 2025 28
1621 2026 2027 28
1622 2026 2028 28
1623 2026 2029 28
1624 2026 2030 28
1625 2031 2032 28
1626 2031 2033 28
1627 2031 2034 28
1628 2031 2035 28
1629 2036 2037 28
1630 2036 2038 28
1631 2036 2039 28
1632 2036 2040 28
1633 2041 2042 28
1634 2041 2043 28
1635 2041 2044 28
1636 2041 2045 28
1637 2046 2047 28
1638 2046 2048 28
1639 2046 2049 28
1640 2046 2050 28
1641 2051 2052 28
1642 2051 2053 28
1643 2051 2054 28
1644 2051 2055 28
1645 2056 2057 28
1646 2056 2058 28
1647 2056 2059 28
1648 2056 2060 28
1649 2061 2062 28
1650 2061 2063 28
1651 2061 2064 28
1652 2061 2065 28
1653 2066 2067 28
1654 2066 2068 28
1655 2066 2069 28
1656 2066 2070 28
1657 2071 2072 28
1658 2071 2073 28
1659 2071 2074 28
1660 2071 2075 28
1661 2076 2077 28
1662 2076 2078 28
1663 2076 2079 28
1664 2076 2080 28
1665 2081 2082 28
1666 2081 2083 28
1667 2081 2084 28
1668 2081 2085 28
1669 2086 2087 28
1670 2086 2088 28
1671 2086 2089 28
1672 2086 2090 28
1673 2091 2092 28
1674 2091 2093 28
1675 2091 2094 28
1676 2091 2095 28
1677 2096 2097 28
1678 2096 2098 28
1679 2096 2099 28
1680 2096 2100 28
1681 2101 2102 28
1682 2101 2103 28
1683 2101 2104 28
1684 2101 2105 28
1685 2106 2107 28
1686 2106 2108 28
1687 2106 2109 28
1688 2106 2110 28
1689 2111 2112 28
1690 2111 2113 28
1691 2111 2114 28
1692 2111 2115 28
1693 2116 2117 28
1694 2116 2118 28
1695 2116 2119 28
1696 2116 2120 28
1697 2121 2122 28
1698 2121 2123 28
1699 2121 2124 28
1700 2121 2125 28
1701 2126 2127 28
1702 2126 2128 28
1703 2126 2129 28
1704 2126 2130 28
1705 2131 2132 28
1706 2131 2133 28
1707 2131 2134 28
1708 2131 2135 28
1709 2136 2137 28
1710 2136 2138 28
1711 2136 2139 28
1712 2136 2140 28
1713 2141 2142 28
1714 2141 2143 28
1715 2141 2144 28
1716 2141 2145 28
1717 2146 2147 28
1718 2146 2148 28
1719 2146 2149 28
1720 2146 2150 28
1721 2151 2152 28
1722 2151 2153 28
1723 2151 2154 28
1724 2151 2155 28
1725 2156 2157 28
1726 2156 2158 28
1727 2156 2159 28
1728 2156 2160 28
1729 2161 2162 28
1730 2161 2163 28
1731 2161 2164 28
1732 2161 2165 28
1733 2166 2167 28
1734 2166 2168 28
1735 2166 2169 28
1736 2166 2170 28
1737 2171 2172 28
1738 2171 2173 28
1739 2171 2174 28
1740 2171 2175 28
1741 2176 2177 28
1742 2176 2178 28
1743 2176 2179 28
1744 2176 2180 28
1745 2181 2182 28
1746 2181 2183 28
1747 2181 2184 28
1748 2181 2185 28
1749 2186 2187 28
1750 2186 2188 28
1751 2186 2189 28
1752 2186 2190 28
1753 2191 2192 28
1754 2191 2193 28
1755 2191 2194 28
1756 2191 2195 28
1757 2196 2197 28
1758 2196 2198 28
1759 2196 2199 28
1760 2196 2200 28
1761 2201 2202 28
1762 2201 2203 28
1763 2201 2204 28
1764 2201 2205 28
1765 2206 2207 28
1766 2206 2208 28
1767 2206 2209 28
1768 2206 2210 28
1769 2211 2212 28
1770 2211 2213 28
1771 2211 2214 28
1772 2211 2215 28
1773 2216 2217 28
1774 2216 2218 28
1775 2216 2219 28
1776 2216 2220 28
1777 2221 2222 28
1778 2221 2223 28
1779 2221 2224 28
1780 2221 2225 28
1781 2226 2227 28
1782 2226 2228 28
1783 2226 2229 28
1784 2226 2230 28
1785 2231 2232 28
1786 2231 2233 28
1787 2231 2234 28
1788 2231 2235 28
1789 2236 2237 28
1790 2236 2238 28
1791 2236 2239 28
1792 2236 2240 28
1793 2241 2242 28
1794 2241 2243 28
1795 2241 2244 28
1796 2241 2245 28
1797 2246 2247 28
1798 2246 2248 28
1799 2246 2249 28
1800 2246 2250 28
1801 2251 2252 28
1802 2251 2253 28
1803 2251 2254 28
1804 2251 2255 28
1805 2256 2257 28
1806 2256 2258 28
1807 2256 2259 28
1808 2256 2260 28
1809 2261 2262 28
1810 2261 2263 28
1811 2261 2264 28
1812 2261 2265 28
1813 2266 2267 28
1814 2266 2268 28
1815 2266 2269 28
1816 2266 2270 28
1817 2271 2272 28
1818 2271 2273 28
1819 2271 2274 28
1820 2271 2275 28
1821 2276 2277 28
1822 2276 2278 28
1823 2276 2279 28
1824 2276 2280 28
1825 2281 2282 28
1826 2281 2283 28
1827 2281 2284 28
1828 2281 2285 28
1829 2286 2287 28
1830 2286 2288 28
1831 2286 2289 28
1832 2286 2290 28
1833 2291 2292 28
1834 2291 2293 28
1835 2291 2294 28
1836 2291 2295 28
1837 2296 2297 28
1838 2296 2298 28
1839 2296 2299 28
1840 2296 2300 28
1841 2301 2302 28
1842 2301 2303 28
1843 2301 2304 28
1844 2301 2305 28
1845 2306 2307 28
1846 2306 2308 28
1847 2306 2309 28
1848 2306 2310 28
1849 2311 2312 28
1850 2311 2313 28
1851 2311 2314 28
1852 2311 2315 28
1853 2316 2317 28
1854 2316 2318 28
1855 2316 2319 28
1856 2316 2320 28
1857 2321 2322 28
1858 2321 2323 28
1859 2321 2324 28
1860 2321 2325 28
1861 2326 2327 28
1862 2326 2328 28
1863 2326 2329 28
1864 2326 2330 28
1865 2331 2332 28
1866 2331 2333 28
1867 2331 2334 28
1868 2331 2335 28
1869 2336 2337 28
1870 2336 2338 28
1871 2336 2339 28
1872 2336 2340 28
1873 2341 2342 28
1874 2341 2343 28
1875 2341 2344 28
1876 2341 2345 28
1877 2346 2347 28
1878 2346 2348 28
1879 2346 2349 28
1880 2346 2350 28
1881 2351 2352 28
1882 2351 2353 28
1883 2351 2354 28
1884 2351 2355 28
1885 2356 2357 28
1886 2356 2358 28
1887 2356 2359 28
1888 2356 2360 28
1889 2361 2362 28
1890 2361 2363 28
1891 2361 2364 28
1892 2361 2365 28
1893 2366 2367 28
1894 2366 2368 28
1895 2366 2369 28
1896 2366 2370 28
1897 2371 2372 28
1898 2371 2373 28
1899 2371 2374 28
1900 2371 2375 28
1901 2376 2377 28
1902 2376 2378 28
1903 2376 2379 28
1904 2376 2380 28
1905 2381 2382 28
1906 2381 2383 28
1907 2381 2384 28
1908 2381 2385 28
1909 2386 2387 28
1910 2386 2388 28
1911 2386 2389 28
1912 2386 2390 28
1913 2391 2392 28
1914 2391 2393 28
1915 2391 2394 28
1916 2391 2395 28
1917 2396 2397 28
1918 2396 2398 28
1919 2396 2399 28
1920 2396 2400 28
1921 2401 2402 28
1922 2401 2403 28
1923 2401 2404 28
1924 2401 2405 28
1925 2406 2407 28
1926 2406 2408 28
1927 2406 2409 28
1928 2406 2410 28
1929 2411 2412 28
1930 2411 2413 28
1931 2411 2414 28
1932 2411 2415 28
1933 2416 2417 28
1934 2416 2418 28
1935 2416 2419 28
1936 2416 2420 28
1937 2421 2422 28
1938 2421 2423 28
1939 2421 2424 28
1940 2421 2425 28
1941 2426 2427 28
1942 2426 2428 28
1943 2426 2429 28
1944 2426 2430 28
1945 2431 2432 28
1946 2431 2433 28
1947 2431 2434 28
1948 2431 2435 28
1949 2436 2437 28
1950 2436 2438 28
1951 2436 2439 28
1952 2436 2440 28
1953 2441 2442 28
1954 2441 2443 28
1955 2441 2444 28
1956 2441 2445 28
1957 2446 2447 28
1958 2446 2448 28
1959 2446 2449 28
1960 2446 2450 28
1961 2451 2452 28
1962 2451 2453 28
1963 2451 2454 28
1964 2451 2455 28
1965 2456 2457 28
1966 2456 2458 28
1967 2456 2459 28
1968 2456 2460 28
1969 2461 2462 28
1970 2461 2463 28
1971 2461 2464 28
1972 2461 2465 28
1973 2466 2467 28
1974 2466 2468 28
1975 2466 2469 28
1976 2466 2470 28
1977 2471 2472 28
1978 2471 2473 28
1979 2471 2474 28
1980 2471 2475 28
1981 2476 2477 28
1982 2476 2478 28
1983 2476 2479 28
1984 2476 2480 28
1985 2481 2482 28
1986 2481 2483 28
1987 2481 2484 28
1988 2481 2485 28
1989 2486 2487 28
1990 2486 2488 28
1991 2486 2489 28
1992 2486 2490 28
1993 2491 2492 28
1994 2491 2493 28
1995 2491 2494 28
1996 2491 2495 28
1997 2496 2497 28
1998 2496 2498 28
1999 2496 2499 28
2000 2496 2500 28
2001 2501 2502 28
2002 2501 2503 28
2003 2501 2504 28
2004 2501 2505 28
2005 2506 2507 28
2006 2506 2508 28
2007 2506 2509 28
2008 2506 2510 28
2009 2511 2512 28
2010 2511 2513 28
2011 2511 2514 28
2012 2511 2515 28
2013 2516 2517 28
2014 2516 2518 28
2015 2516 2519 28
2016 2516 2520 28
2017 2521 2522 28
2018 2521 2523 28
2019 2521 2524 28
2020 2521 2525 28
2021 2526 2527 28
2022 2526 2528 28
2023 2526 2529 28
2024 2526 2530 28
2025 2531 2532 28
2026 2531 2533 28
2027 2531 2534 28
2028 2531 2535 28
2029 2536 2537 28
2030 2536 2538 28
2031 2536 2539 28
2032 2536 2540 28
2033 2541 2542 28
2034 2541 2543 28
2035 2541 2544 28
2036 2541 2545 28
2037 2546 2547 28
2038 2546 2548 28
2039 2546 2549 28
2040 2546 2550 28
2041 2551 2552 28
2042 2551 2553 28
2043 2551 2554 28
2044 2551 2555 28
2045 2556 2557 28
2046 2556 2558 28
2047 2556 2559 28
2048 2556 2560 28
2049 2561 2562 28
2050 2561 2563 28
2051 2561 2564 28
2052 2561 2565 28
2053 2566 2567 28
2054 2566 2568 28
2055 2566 2569 28
2056 2566 2570 28
2057 2571 2572 28
2058 2571 2573 28
2059 2571 2574 28
2060 2571 2575 28
2061 2576 2577 28
2062 2576 2578 28
2063 2576 2579 28
2064 2576 2580 28
2065 2581 2582 28
2066 2581 2583 28
2067 2581 2584 28
2068 2581 2585 28
2069 2586 2587 28
2070 2586 2588 28
2071 2586 2589 28
2072 2586 2590 28
2073 2591 2592 28
2074 2591 2593 28
2075 2591 2594 28
2076 2591 2595 28
2077 2596 2597 28
2078 2596 2598 28
2079 2596 2599 28
2080 2596 2600 28
2081 2601 2602 28
2082 2601 2603 28
2083 2601 2604 28
2084 2601 2605 28
2085 2606 2607 28
2086 2606 2608 28
2087 2606 2609 28
2088 2606 2610 28
2089 2611 2612 28
2090 2611 2613 28
2091 2611 2614 28
2092 2611 2615 28
2093 2616 2617 28
2094 2616 2618 28
2095 2616 2619 28
2096 2616 2620 28
2097 2621 2622 28
2098 2621 2623 28
2099 2621 2624 28
2100 2621 2625 28
2101 2626 2627 28
2102 2626 2628 28
2103 2626 2629 28
2104 2626 2630 28
2105 2631 2632 28
2106 2631 2633 28
2107 2631 2634 28
2108 2631 2635 28
2109 2636 2637 28
2110 2636 2638 28
2111 2636 2639 28
2112 2636 2640 28
2113 2641 2642 28
2114 2641 2643 28
2115 2641 2644 28
2116 2641 2645 28
2117 2646 2647 28
2118 2646 2648 28
2119 2646 2649 28
2120 2646 2650 28
2121 2651 2652 28
2122 2651 2653 28
2123 2651 2654 28
2124 2651 2655 28
2125 2656 2657 28
2126 2656 2658 28
2127 2656 2659 28
2128 2656 2660 28
2129 2661 2662 28
2130 2661 2663 28
2131 2661 2664 28
2132 2661 2665 28
2133 2666 2667 28
2134 2666 2668 28
2135 2666 2669 28
2136 2666 2670 28
2137 2671 2672 28
2138 2671 2673 28
2139 2671 2674 28
2140 2671 2675 28
2141 2676 2677 28
2142 2676 2678 28
2143 2676 2679 28
2144 2676 2680 28
2145 2681 2682 28
2146 2681 2683 28
2147 2681 2684 28
2148 2681 2685 28
2149 2686 2687 28
2150 2686 2688 28
2151 2686 2689 28
2152 2686 2690 28
2153 2691 2692 28
2154 2691 2693 28
2155 2691 2694 28
2156 2691 2695 28
2157 2696 2697 28
2158 2696 2698 28
2159 2696 2699 28
2160 2696 2700 28
2161 2701 2702 28
2162 2701 2703 28
2163 2701 2704 28
2164 2701 2705 28
2165 2706 2707 28
2166 2706 2708 28
2167 2706 2709 28
2168 2706 2710 28
2169 2711 2712 28
2170 2711 2713 28
2171 2711 2714 28
2172 2711 2715 28
2173 2716 2717 28
2174 2716 2718 28
2175 2716 2719 28
2176 2716 2720 28
2177 2721 2722 28
2178 2721 2723 28
2179 2721 2724 28
2180 2721 2725 28
2181 2726 2727 28
2182 2726 2728 28
2183 2726 2729 28
2184 2726 2730 28
2185 2731 2732 28
2186 2731 2733 28
2187 2731 2734 28
2188 2731 2735 28
2189 2736 2737 28
2190 2736 2738 28
2191 2736 2739 28
2192 2736 2740 28
2193 2741 2742 28
2194 2741 2743 28
2195 2741 2744 28
2196 2741 2745 28
2197 2746 2747 28
2198 2746 2748 28
2199 2746 2749 28
2200 2746 2750 28
2201 2751 2752 28
2202 2751 2753 28
2203 2751 2754 28
2204 2751 2755 28
2205 2756 2757 28
2206 2756 2758 28
2207 2756 2759 28
2208 2756 2760 28
2209 2761 2762 28
2210 2761 2763 28
2211 2761 2764 28
2212 2761 2765 28
2213 2766 2767 28
2214 2766 2768 28
2215 2766 2769 28
2216 2766 2770 28
2217 2771 2772 28
2218 2771 2773 28
2219 2771 2774 28
2220 2771 2775 28
2221 2776 2777 28
2222 2776 2778 28
2223 2776 2779 28
2224 2776 2780 28
2225 2781 2782 28
2226 2781 2783 28
2227 2781 2784 28
2228 2781 2785 28
2229 2786 2787 28
2230 2786 2788 28
2231 2786 2789 28
2232 2786 2790 28
2233 2791 2792 28
2234 2791 2793 28
2235 2791 2794 28
2236 2791 2795 28
2237 2796 2797 28
2238 2796 2798 28
2239 2796 2799 28
2240 2796 2800 28
2241 2801 2802 28
2242 2801 2803 28
2243 2801 2804 28
2244 2801 2805 28
2245 2806 2807 28
2246 2806 2808 28
2247 2806 2809 28
2248 2806 2810 28
2249 2811 2812 28
2250 2811 2813 28
2251 2811 2814 28
2252 2811 2815 28
2253 2816 2817 28
2254 2816 2818 28
2255 2816 2819 28
2256 2816 2820 28
2257 2821 2822 28
2258 2821 2823 28
2259 2821 2824 28
2260 2821 2825 28
2261 2826 2827 28
2262 2826 2828 28
2263 2826 2829 28
2264 2826 2830 28
2265 2831 2832 28
2266 2831 2833 28
2267 2831 2834 28
2268 2831 2835 28
2269 2836 2837 28
2270 2836 2838 28
2271 2836 2839 28
2272 2836 2840 28
2273 2841 2842 28
2274 2841 2843 28
2275 2841 2844 28
2276 2841 2845 28
2277 2846 2847 28
2278 2846 2848 28
2279 2846 2849 28
2280 2846 2850 28
2281 2851 2852 28
2282 2851 2853 28
2283 2851 2854 28
2284 2851 2855 28
2285 2856 2857 28
2286 2856 2858 28
2287 2856 2859 28
2288 2856 2860 28
2289 2861 2862 28
2290 2861 2863 28
2291 2861 2864 28
2292 2861 2865 28
2293 2866 2867 28
2294 2866 2868 28
2295 2866 2869 28
2296 2866 2870 28
2297 2871 2872 28
2298 2871 2873 28
2299 2871 2874 28
2300 2871 2875 28
2301 2876 2877 28
2302 2876 2878 28
2303 2876 2879 28
2304 2876 2880 28
2305 2881 2882 28
2306 2881 2883 28
2307 2881 2884 28
2308 2881 2885 28
2309 2886 2887 28
2310 2886 2888 28
2311 2886 2889 28
2312 2886 2890 28
2313 2891 2892 28
2314 2891 2893 28
2315 2891 2894 28
2316 2891 2895 28
2317 2896 2897 28
2318 2896 2898 28
2319 2896 2899 28
2320 2896 2900 28
2321 2901 2902 28
2322 2901 2903 28
2323 2901 2904 28
2324 2901 2905 28
2325 2906 2907 28
2326 2906 2908 28
2327 2906 2909 28
2328 2906 2910 28
2329 2911 2912 28
2330 2911 2913 28
2331 2911 2914 28
2332 2911 2915 28
2333 2916 2917 28
2334 2916 2918 28
2335 2916 2919 28
2336 2916 2920 28
2337 2921 2922 28
2338 2921 2923 28
2339 2921 2924 28
2340 2921 2925 28
2341 2926 2927 28
2342 2926 2928 28
2343 2926 2929 28
2344 2926 2930 28
2345 2931 2932 28
2346 2931 2933 28
2347 2931 2934 28
2348 2931 2935 28
2349 2936 2937 28
2350 2936 2938 28
2351 2936 2939 28
2352 2936 2940 28
2353 2941 2942 28
2354 2941 2943 28
2355 2941 2944 28
2356 2941 2945 28
2357 2946 2947 28
2358 2946 2948 28
2359 2946 2949 28
2360 2946 2950 28
2361 2951 2952 28
2362 2951 2953 28
2363 2951 2954 28
2364 2951 2955 28
2365 2956 2957 28
2366 2956 2958 28
2367 2956 2959 28
2368 2956 2960 28
2369 2961 2962 28
2370 2961 2963 28
2371 2961 2964 28
2372 2961 2965 28
2373 2966 2967 28
2374 2966 2968 28
2375 2966 2969 28
2376 2966 2970 28
2377 2971 2972 28
2378 2971 2973 28
2379 2971 2974 28
2380 2971 2975 28
2381 2976 2977 28
2382 2976 2978 28
2383 2976 2979 28
2384 2976 2980 28
2385 2981 2982 28
2386 2981 2983 28
2387 2981 2984 28
2388 2981 2985 28
2389 2986 2987 28
2390 2986 2988 28
2391 2986 2989 28
2392 2986 2990 28
2393 2991 2992 28
2394 2991 2993 28
2395 2991 2994 28
2396 2991 2995 28
2397 2996 2997 28
2398 2996 2998 28
2399 2996 2999 28
2400 2996 3000 28
2401 3001 3002 28
2402 3001 3003 28
2403 3001 3004 28
2404 3001 3005 28
2405 3006 3007 28
2406 3006 3008 28
2407 3006 3009 28
2408 3006 3010 28
2409 3011 3012 28
2410 3011 3013 28
2411 3011 3014 28
2412 3011 3015 28
2413 3016 3017 28
2414 3016 3018 28
2415 3016 3019 28
2416 3016 3020 28
2417 3021 3022 28
2418 3021 3023 28
2419 3021 3024 28
2420 3021 3025 28
2421 3026 3027 28
2422 3026 3028 28
2423 3026 3029 28
2424 3026 3030 28
2425 3031 3032 28
2426 3031 3033 28
2427 3031 3034 28
2428 3031 3035 28
2429 3036 3037 28
2430 3036 3038 28
2431 3036 3039 28
2432 3036 3040 28
2433 3041 3042 28
2434 3041 3043 28
2435 3041 3044 28
2436 3041 3045 28
2437 3046 3047 28
2438 3046 3048 28
2439 3046 3049 28
2440 3046 3050 28
2441 3051 3052 28
2442 3051 3053 28
2443 3051 3054 28
2444 3051 3055 28
2445 3056 3057 28
2446 3056 3058 28
2447 3056 3059 28
2448 3056 3060 28
2449 3061 3062 28
2450 3061 3063 28
2451 3061 3064 28
2452 3061 3065 28
2453 3066 3067 28
2454 3066 3068 28
2455 3066 3069 28
2456 3066 3070 28
2457 3071 3072 28
2458 3071 3073 28
2459 3071 3074 28
2460 3071 3075 28
2461 3076 3077 28
2462 3076 3078 28
2463 3076 3079 28
2464 3076 3080 28
2465 3081 3082 28
2466 3081 3083 28
2467 3081 3084 28
2468 3081 3085 28
2469 3086 3087 28
2470 3086 3088 28
2471 3086 3089 28
2472 3086 3090 28
2473 3091 3092 28
2474 3091 3093 28
2475 3091 3094 28
2476 3091 3095 28
2477 3096 3097 28
2478 3096 3098 28
2479 3096 3099 28
2480 3096 3100 28
2481 3101 3102 28
2482 3101 3103 28
2483 3101 3104 28
2484 3101 3105 28
2485 3106 3107 28
2486 3106 3108 28
2487 3106 3109 28
2488 3106 3110 28
2489 3111 3112 28
2490 3111 3113 28
2491 3111 3114 28
2492 3111 3115 28
2493 3116 3117 28
2494 3116 3118 28
2495 3116 3119 28
2496 3116 3120 28
2497 3121 3122 28
2498 3121 3123 28
2499 3121 3124 28
2500 3121 3125 28
2501 3126 3127 28
2502 3126 3128 28
2503 3126 3129 28
2504 3126 3130 28
2505 3131 3132 28
2506 3131 3133 28
2507 3131 3134 28
2508 3131 3135 28
2509 3136 3137 28
2510 3136 3138 28
2511 3136 3139 28
2512 3136 3140 28
2513 3141 3142 28
2514 3141 3143 28
2515 3141 3144 28
2516 3141 3145 28
2517 3146 3147 28
2518 3146 3148 28
2519 3146 3149 28
2520 3146 3150 28
2521 3151 3152 28
2522 3151 3153 28
2523 3151 3154 28
2524 3151 3155 28
2525 3156 3157 28
2526 3156 3158 28
2527 3156 3159 28
2528 3156 3160 28
2529 3161 3162 28
2530 3161 3163 28
2531 3161 3164 28
2532 3161 3165 28
2533 3166 3167 28
2534 3166 3168 28
2535 3166 3169 28
2536 3166 3170 28
2537 3171 3172 28
2538 3171 3173 28
2539 3171 3174 28
2540 3171 3175 28
2541 3176 3177 28
2542 3176 3178 28
2543 3176 3179 28
2544 3176 3180 28
2545 3181 3182 28
2546 3181 3183 28
2547 3181 3184 28
2548 3181 3185 28
2549 3186 3187 28
2550 3186 3188 28
2551 3186 3189 28
2552 3186 3190 28
2553 3191 3192 28
2554 3191 3193 28
2555 3191 3194 28
2556 3191 3195 28
2557 3196 3197 28
2558 3196 3198 28
2559 3196 3199 28
2560 3196 3200 28
2561 3201 3202 28
2562 3201 3203 28
2563 3201 3204 28
2564 3201 3205 28
2565 3206 3207 28
2566 3206 3208 28
2567 3206 3209 28
2568 3206 3210 28
2569 3211 3212 28
2570 3211 3213 28
2571 3211 3214 28
2572 3211 3215 28
2573 3216 3217 28
2574 3216 3218 28
2575 3216 3219 28
2576 3216 3220 28
2577 3221 3222 28
2578 3221 3223 28
2579 3221 3224 28
2580 3221 3225 28
2581 3226 3227 28
2582 3226 3228 28
2583 3226 3229 28
2584 3226 3230 28
2585 3231 3232 28
2586 3231 3233 28
2587 3231 3234 28
2588 3231 3235 28
2589 3236 3237 28
2590 3236 3238 28
2591 3236 3239 28
2592 3236 3240 28
2593 3241 3242 28
2594 3241 3243 28
2595 3241 3244 28
2596 3241 3245 28
2597 3246 3247 28
2598 3246 3248 28
2599 3246 3249 28
2600 3246 3250 28
2601 3251 3252 28
2602 3251 3253 28
2603 3251 3254 28
2604 3251 3255 28
2605 3256 3257 28
2606 3256 3258 28
2607 3256 3259 28
2608 3256 3260 28
2609 3261 3262 28
2610 3261 3263 28
2611 3261 3264 28
2612 3261 3265 28
2613 3266 3267 28
2614 3266 3268 28
2615 3266 3269 28
2616 3266 3270 28
2617 3271 3272 28
2618 3271 3273 28
2619 3271 3274 28
2620 3271 3275 28
2621 3276 3277 28
2622 3276 3278 28
2623 3276 3279 28
2624 3276 3280 28
2625 3281 3282 28
2626 3281 3283 28
2627 3281 3284 28
2628 3281 3285 28
2629 3286 3287 28
2630 3286 3288 28
2631 3286 3289 28
2632 3286 3290 28
2633 3291 3292 28
2634 3291 3293 28
2635 3291 3294 28
2636 3291 3295 28
2637 3296 3297 28
2638 3296 3298 28
2639 3296 3299 28
2640 3296 3300 28
2641 3301 3302 28
2642 3301 3303 28
2643 3301 3304 28
2644 3301 3305 28
2645 3306 3307 28
2646 3306 3308 28
2647 3306 3309 28
2648 3306 3310 28
2649 3311 3312 28
2650 3311 3313 28
2651 3311 3314 28
2652 3311 3315 28
2653 3316 3317 28
2654 3316 3318 28
2655 3316 3319 28
2656 3316 3320 28
2657 3321 3322 28
2658 3321 3323 28
2659 3321 3324 28
2660 3321 3325 28
2661 3326 3327 28
2662 3326 3328 28
2663 3326 3329 28
2664 3326 3330 28
2665 3331 3332 28
2666 3331 3333 28
2667 3331 3334 28
2668 3331 3335 28
2669 3336 3337 28
2670 3336 3338 28
2671 3336 3339 28
2672 3336 3340 28
2673 3341 3342 28
2674 3341 3343 28
2675 3341 3344 28
2676 3341 3345 28
2677 3346 3347 28
2678 3346 3348 28
2679 3346 3349 28
2680 3346 3350 28
2681 3351 3352 28
2682 3351 3353 28
2683 3351 3354 28
2684 3351 3355 28
2685 3356 3357 28
2686 3356 3358 28
2687 3356 3359 28
2688 3356 3360 28
2689 3361 3362 28
2690 3361 3363 28
2691 3361 3364 28
2692 3361 3365 28
2693 3366 3367 28
2694 3366 3368 28
2695 3366 3369 28
2696 3366 3370 28
2697 3371 3372 28
2698 3371 3373 28
2699 3371 3374 28
2700 3371 3375 28
2701 3376 3377 28
2702 3376 3378 28
2703 3376 3379 28
2704 3376 3380 28
2705 3381 3382 28
2706 3381 3383 28
2707 3381 3384 28
2708 3381 3385 28
2709 3386 3387 28
2710 3386 3388 28
2711 3386 3389 28
2712 3386 3390 28
2713 3391 3392 28
2714 3391 3393 28
2715 3391 3394 28
2716 3391 3395 28
2717 3396 3397 28
2718 3396 3398 28
2719 3396 3399 28
2720 3396 3400 28
2721 3401 3402 28
2722 3401 3403 28
2723 3401 3404 28
2724 3401 3405 28
2725 3406 3407 28
2726 3406 3408 28
2727 3406 3409 28
2728 3406 3410 28
2729 3411 3412 28
2730 3411 3413 28
2731 3411 3414 28
2732 3411 3415 28
2733 3416 3417 28
2734 3416 3418 28
2735 3416 3419 28
2736 3416 3420 28
2737 3421 3422 28
2738 3421 3423 28
2739 3421 3424 28
2740 3421 3425 28
2741 3426 3427 28
2742 3426 3428 28
2743 3426 3429 28
2744 3426 3430 28
2745 3431 3432 28
2746 3431 3433 28
2747 3431 3434 28
2748 3431 3435 28
2749 3436 3437 28
2750 3436 3438 28
2751 3436 3439 28
2752 3436 3440 28
2753 3441 3442 28
2754 3441 3443 28
2755 3441 3444 28
2756 3441 3445 28
2757 3446 3447 28
2758 3446 3448 28
2759 3446 3449 28
2760 3446 3450 28
2761 3451 3452 28
2762 3451 3453 28
2763 3451 3454 28
2764 3451 3455 28
2765 3456 3457 28
2766 3456 3458 28
2767 3456 3459 28
2768 3456 3460 28
2769 3461 3462 28
2770 3461 3463 28
2771 3461 3464 28
2772 3461 3465 28
2773 3466 3467 28
2774 3466 3468 28
2775 3466 3469 28
2776 3466 3470 28
2777 3471 3472 28
2778 3471 3473 28
2779 3471 3474 28
2780 3471 3475 28
2781 3476 3477 28
2782 3476 3478 28
2783 3476 3479 28
2784 3476 3480 28
2785 3481 3482 28
2786 3481 3483 28
2787 3481 3484 28
2788 3481 3485 28
2789 3486 3487 28
2790 3486 3488 28
2791 3486 3489 28
2792 3486 3490 28
2793 3491 3492 28
2794 3491 3493 28
2795 3491 3494 28
2796 3491 3495 28
2797 3496 3497 28
2798 3496 3498 28
2799 3496 3499 28
2800 3496 3500 28
2801 3501 3502 28
2802 3501 3503 28
2803 3501 3504 28
2804 3501 3505 28
2805 3506 3507 28
2806 3506 3508 28
2807 3506 3509 28
2808 3506 3510 28
2809 3511 3512 28
2810 3511 3513 28
2811 3511 3514 28
2812 3511 3515 28
2813 3516 3517 28
2814 3516 3518 28
2815 3516 3519 28
2816 3516 3520 28
2817 3521 3522 28
2818 3521 3523 28
2819 3521 3524 28
2820 3521 3525 28
2821 3526 3527 28
2822 3526 3528 28
2823 3526 3529 28
2824 3526 3530 28
2825 3531 3532 28
2826 3531 3533 28
2827 3531 3534 28
2828 3531 3535 28
2829 3536 3537 28
2830 3536 3538 28
2831 3536 3539 28
2832 3536 3540 28
2833 3541 3542 28
2834 3541 3543 28
2835 3541 3544 28
2836 3541 3545 28
2837 3546 3547 28
2838 3546 3548 28
2839 3546 3549 28
2840 3546 3550 28
2841 3551 3552 28
2842 3551 3553 28
2843 3551 3554 28
2844 3551 3555 28
2845 3556 3557 28
2846 3556 3558 28
2847 3556 3559 28
2848 3556 3560 28
2849 3561 3562 28
2850 3561 3563 28
2851 3561 3564 28
2852 3561 3565 28
2853 3566 3567 28
2854 3566 3568 28
2855 3566 3569 28
2856 3566 3570 28
2857 3571 3572 28
2858 3571 3573 28
2859 3571 3574 28
2860 3571 3575 28
2861 3576 3577 28
2862 3576 3578 28
2863 3576 3579 28
2864 3576 3580 28
2865 3581 3582 28
2866 3581 3583 28
2867 3581 3584 28
2868 3581 3585 28
2869 3586 3587 28
2870 3586 3588 28
2871 3586 3589 28
2872 3586 3590 28
2873 3591 3592 28
2874 3591 3593 28
2875 3591 3594 28
2876 3591 3595 28
2877 3596 3597 28
2878 3596 3598 28
2879 3596 3599 28
2880 3596 3600 28
2881 3601 3602 28
2882 3601 3603 28
2883 3601 3604 28
2884 3601 3605 28
2885 3606 3607 28
2886 3606 3608 28
2887 3606 3609 28
2888 3606 3610 28
2889 3611 3612 28
2890 3611 3613 28
2891 3611 3614 28
2892 3611 3615 28
2893 3616 3617 28
2894 3616 3618 28
2895 3616 3619 28
2896 3616 3620 28
2897 3621 3622 28
2898 3621 3623 28
2899 3621 3624 28
2900 3621 3625 28
2901 3626 3627 28
2902 3626 3628 28
2903 3626 3629 28
2904 3626 3630 28
2905 3631 3632 28
2906 3631 3633 28
2907 3631 3634 28
2908 3631 3635 28
2909 3636 3637 28
2910 3636 3638 28
2911 3636 3639 28
2912 3636 3640 28
2913 3641 3642 28
2914 3641 3643 28
2915 3641 3644 28
2916 3641 3645 28
2917 3646 3647 28
2918 3646 3648 28
2919 3646 3649 28
2920 3646 3650 28
2921 3651 3652 28
2922 3651 3653 28
2923 3651 3654 28
2924 3651 3655 28
2925 3656 3657 28
2926 3656 3658 28
2927 3656 3659 28
2928 3656 3660 28
2929 3661 3662 28
2930 3661 3663 28
2931 3661 3664 28
2932 3661 3665 28
2933 3666 3667 28
2934 3666 3668 28
2935 3666 3669 28
2936 3666 3670 28
2937 3671 3672 28
2938 3671 3673 28
2939 3671 3674 28
2940 3671 3675 28
2941 3676 3677 28
2942 3676 3678 28
2943 3676 3679 28
2944 3676 3680 28
2945 3681 3682 28
2946 3681 3683 28
2947 3681 3684 28
2948 3681 3685 28
2949 3686 3687 28
2950 3686 3688 28
2951 3686 3689 28
2952 3686 3690 28
2953 3691 3692 28
2954 3691 3693 28
2955 3691 3694 28
2956 3691 3695 28
2957 3696 3697 28
2958 3696 3698 28
2959 3696 3699 28
2960 3696 3700 28
2961 3701 3702 28
2962 3701 3703 28
2963 3701 3704 28
2964 3701 3705 28
2965 3706 3707 28
2966 3706 3708 28
2967 3706 3709 28
2968 3706 3710 28
2969 3711 3712 28
2970 3711 3713 28
2971 3711 3714 28
2972 3711 3715 28
2973 3716 3717 28
2974 3716 3718 28
2975 3716 3719 28
2976 3716 3720 28
2977 3721 3722 28
2978 3721 3723 28
2979 3721 3724 28
2980 3721 3725 28
2981 3726 3727 28
2982 3726 3728 28
2983 3726 3729 28
2984 3726 3730 28
2985 3731 3732 28
2986 3731 3733 28
2987 3731 3734 28
2988 3731 3735 28
2989 3736 3737 28
2990 3736 3738 28
2991 3736 3739 28
2992 3736 3740 28
2993 3741 3742 28
2994 3741 3743 28
2995 3741 3744 28
2996 3741 3745 28
2997 3746 3747 28
2998 3746 3748 28
2999 3746 3749 28
3000 3746 3750 28
3001 3751 3752 28
3002 3751 3753 28
3003 3751 3754 28
3004 3751 3755 28
3005 3756 3757 28
3006 3756 3758 28
3007 3756 3759 28
3008 3756 3760 28
3009 3761 3762 28
3010 3761 3763 28
3011 3761 3764 28
3012 3761 3765 28
3013 3766 3767 28
3014 3766 3768 28
3015 3766 3769 28
3016 3766 3770 28
3017 3771 3772 28
3018 3771 3773 28
3019 3771 3774 28
3020 3771 3775 28
3021 3776 3777 28
3022 3776 3778 28
3023 3776 3779 28
3024 3776 3780 28
3025 3781 3782 28
3026 3781 3783 28
3027 3781 3784 28
3028 3781 3785 28
3029 3786 3787 28
3030 3786 3788 28
3031 3786 3789 28
3032 3786 3790 28
3033 3791 3792 28
3034 3791 3793 28
3035 3791 3794 28
3036 3791 3795 28
3037 3796 3797 28
3038 3796 3798 28
3039 3796 3799 28
3040 3796 3800 28
3041 3801 3802 28
3042 3801 3803 28
3043 3801 3804 28
3044 3801 3805 28
3045 3806 3807 28
3046 3806 3808 28
3047 3806 3809 28
3048 3806 3810 28
3049 3811 3812 28
3050 3811 3813 28
3051 3811 3814 28
3052 3811 3815 28
3053 3816 3817 28
3054 3816 3818 28
3055 3816 3819 28
3056 3816 3820 28
3057 3821 3822 28
3058 3821 3823 28
3059 3821 3824 28
3060 3821 3825 28
3061 3826 3827 28
3062 3826 3828 28
3063 3826 3829 28
3064 3826 3830 28
3065 3831 3832 28
3066 3831 3833 28
3067 3831 3834 28
3068 3831 3835 28
3069 3836 3837 28
3070 3836 3838 28
3071 3836 3839 28
3072 3836 3840 28
3073 3841 3842 28
3074 3841 3843 28
3075 3841 3844 28
3076 3841 3845 28
3077 3846 3847 28
3078 3846 3848 28
3079 3846 3849 28
3080 3846 3850 28
3081 3851 3852 28
3082 3851 3853 28
3083 3851 3854 28
3084 3851 3855 28
3085 3856 3857 28
3086 3856 3858 28
3087 3856 3859 28
3088 3856 3860 28
3089 3861 3862 28
3090 3861 3863 28
3091 3861 3864 28
3092 3861 3865 28
3093 3866 3867 28
3094 3866 3868 28
3095 3866 3869 28
3096 3866 3870 28
3097 3871 3872 28
3098 3871 3873 28
3099 3871 3874 28
3100 3871 3875 28
3101 3876 3877 28
3102 3876 3878 28
3103 3876 3879 28
3104 3876 3880 28
3105 3881 3882 28
3106 3881 3883 28
3107 3881 3884 28
3108 3881 3885 28
3109 3886 3887 28
3110 3886 3888 28
3111 3886 3889 28
3112 3886 3890 28
3113 3891 3892 28
3114 3891 3893 28
3115 3891 3894 28
3116 3891 3895 28
3117 3896 3897 28
3118 3896 3898 28
3119 3896 3899 28
3120 3896 3900 28
3121 3901 3902 28
3122 3901 3903 28
3123 3901 3904 28
3124 3901 3905 28
3125 3906 3907 28
3126 3906 3908 28
3127 3906 3909 28
3128 3906 3910 28
3129 3911 3912 28
3130 3911 3913 28
3131 3911 3914 28
3132 3911 3915 28
3133 3916 3917 28
3134 3916 3918 28
3135 3916 3919 28
3136 3916 3920 28
3137 3921 3922 28
3138 3921 3923 28
3139 3921 3924 28
3140 3921 3925 28
3141 3926 3927 28
3142 3926 3928 28
3143 3926 3929 28
3144 3926 3930 28
3145 3931 3932 28
3146 3931 3933 28
3147 3931 3934 28
3148 3931 3935 28
3149 3936 3937 28
3150 3936 3938 28
3151 3936 3939 28
3152 3936 3940 28
3153 3941 3942 28
3154 3941 3943 28
3155 3941 3944 28
3156 3941 3945 28
3157 3946 3947 28
3158 3946 3948 28
3159 3946 3949 28
3160 3946 3950 28
3161 3951 3952 28
3162 3951 3953 28
3163 3951 3954 28
3164 3951 3955 28
3165 3956 3957 28
3166 3956 3958 28
3167 3956 3959 28
3168 3956 3960 28
3169 3961 3962 28
3170 3961 3963 28
3171 3961 3964 28
3172 3961 3965 28
3173 3966 3967 28
3174 3966 3968 28
3175 3966 3969 28
3176 3966 3970 28
3177 3971 3972 28
3178 3971 3973 28
3179 3971 3974 28
3180 3971 3975 28
3181 3976 3977 28
3182 3976 3978 28
3183 3976 3979 28
3184 3976 3980 28
3185 3981 3982 28
3186 3981 3983 28
3187 3981 3984 28
3188 3981 3985 28
3189 3986 3987 28
3190 3986 3988 28
3191 3986 3989 28
3192 3986 3990 28
3193 3991 3992 28
3194 3991 3993 28
3195 3991 3994 28
3196 3991 3995 28
3197 3996 3997 28
3198 3996 3998 28
3199 3996 3999 28
3200 3996 4000 28
3201 4001 4002 28
3202 4001 4003 28
3203 4001 4004 28
3204 4001 4005 28
3205 4006 4007 28
3206 4006 4008 28
3207 4006 4009 28
3208 4006 4010 28
3209 4011 4012 28
3210 4011 4013 28
3211 4011 4014 28
3212 4011 4015 28
3213 4016 4017 28
3214 4016 4018 28
3215 4016 4019 28
3216 4016 4020 28
3217 4021 4022 28
3218 4021 4023 28
3219 4021 4024 28
3220 4021 4025 28
3221 4026 4027 28
3222 4026 4028 28
3223 4026 4029 28
3224 4026 4030 28
3225 4031 4032 28
3226 4031 4033 28
3227 4031 4034 28
3228 4031 4035 28
3229 4036 4037 28
3230 4036 4038 28
3231 4036 4039 28
3232 4036 4040 28
3233 4041 4042 28
3234 4041 4043 28
3235 4041 4044 28
3236 4041 4045 28
3237 4046 4047 28
3238 4046 4048 28
3239 4046 4049 28
3240 4046 4050 28
3241 4051 4052 28
3242 4051 4053 28
3243 4051 4054 28
3244 4051 4055 28
3245 4056 4057 28
3246 4056 4058 28
3247 4056 4059 28
3248 4056 4060 28
3249 4061 4062 28
3250 4061 4063 28
3251 4061 4064 28
3252 4061 4065 28
3253 4066 4067 28
3254 4066 4068 28
3255 4066 4069 28
3256 4066 4070 28
3257 4071 4072 28
3258 4071 4073 28
3259 4071 4074 28
3260 4071 4075 28
3261 4076 4077 28
3262 4076 4078 28
3263 4076 4079 28
3264 4076 4080 28
3265 4081 4082 28
3266 4081 4083 28
3267 4081 4084 28
3268 4081 4085 28
3269 4086 4087 28
3270 4086 4088 28
3271 4086 4089 28
3272 4086 4090 28
3273 4091 4092 28
3274 4091 4093 28
3275 4091 4094 28
3276 4091 4095 28
3277 4096 4097 28
3278 4096 4098 28
3279 4096 4099 28
3280 4096 4100 28
3281 4101 4102 28
3282 4101 4103 28
3283 4101 4104 28
3284 4101 4105 28
3285 4106 4107 28
3286 4106 4108 28
3287 4106 4109 28
3288 4106 4110 28
3289 4111 4112 28
3290 4111 4113 28
3291 4111 4114 28
3292 4111 4115 28
3293 4116 4117 28
3294 4116 4118 28
3295 4116 4119 28
3296 4116 4120 28
3297 4121 4122 28
3298 4121 4123 28
3299 4121 4124 28
3300 4121 4125 28
3301 4126 4127 28
3302 4126 4128 28
3303 4126 4129 28
3304 4126 4130 28
3305 4131 4132 28
3306 4131 4133 28
3307 4131 4134 28
3308 4131 4135 28
3309 4136 4137 28
3310 4136 4138 28
3311 4136 4139 28
3312 4136 4140 28
3313 4141 4142 28
3314 4141 4143 28
3315 4141 4144 28
3316 4141 4145 28
3317 4146 4147 28
3318 4146 4148 28
3319 4146 4149 28
3320 4146 4150 28
3321 4151 4152 28
3322 4151 4153 28
3323 4151 4154 28
3324 4151 4155 28
3325 4156 4157 28
3326 4156 4158 28
3327 4156 4159 28
3328 4156 4160 28
3329 4161 4162 28
3330 4161 4163 28
3331 4161 4164 28
3332 4161 4165 28
3333 4166 4167 28
3334 4166 4168 28
3335 4166 4169 28
3336 4166 4170 28
3337 4171 4172 28
3338 4171 4173 28
3339 4171 4174 28
3340 4171 4175 28
3341 4176 4177 28
3342 4176 4178 28
3343 4176 4179 28
3344 4176 4180 28
3345 4181 4182 28
3346 4181 4183 28
3347 4181 4184 28
3348 4181 4185 28
3349 4186 4187 28
3350 4186 4188 28
3351 4186 4189 28
3352 4186 4190 28
3353 4191 4192 28
3354 4191 4193 28
3355 4191 4194 28
3356 4191 4195 28
3357 4196 4197 28
3358 4196 4198 28
3359 4196 4199 28
3360 4196 4200 28
3361 4201 4202 28
3362 4201 4203 28
3363 4201 4204 28
3364 4201 4205 28
3365 4206 4207 28
3366 4206 4208 28
3367 4206 4209 28
3368 4206 4210 28
3369 4211 4212 28
3370 4211 4213 28
3371 4211 4214 28
3372 4211 4215 28
3373 4216 4217 28
3374 4216 4218 28
3375 4216 4219 28
3376 4216 4220 28
3377 4221 4222 28
3378 4221 4223 28
3379 4221 4224 28
3380 4221 4225 28
3381 4226 4227 28
3382 4226 4228 28
3383 4226 4229 28
3384 4226 4230 28
3385 4231 4232 28
3386 4231 4233 28
3387 4231 4234 28
3388 4231 4235 28
3389 4236 4237 28
3390 4236 4238 28
3391 4236 4239 28
3392 4236 4240 28
3393 4241 4242 28
3394 4241 4243 28
3395 4241 4244 28
3396 4241 4245 28
3397 4246 4247 28
3398 4246 4248 28
3399 4246 4249 28
3400 4246 4250 28
3401 4251 4252 28
3402 4251 4253 28
3403 4251 4254 28
3404 4251 4255 28
3405 4256 4257 28
3406 4256 4258 28
3407 4256 4259 28
3408 4256 4260 28
3409 4261 4262 28
3410 4261 4263 28
3411 4261 4264 28
3412 4261 4265 28
3413 4266 4267 28
3414 4266 4268 28
3415 4266 4269 28
3416 4266 4270 28
3417 4271 4272 28
3418 4271 4273 28
3419 4271 4274 28
3420 4271 4275 28
3421 4276 4277 28
3422 4276 4278 28
3423 4276 4279 28
3424 4276 4280 28
3425 4281 4282 28
3426 4281 4283 28
3427 4281 4284 28
3428 4281 4285 28
3429 4286 4287 28
3430 4286 4288 28
3431 4286 4289 28
3432 4286 4290 28
3433 4291 4292 28
3434 4291 4293 28
3435 4291 4294 28
3436 4291 4295 28
3437 4296 4297 28
3438 4296 4298 28
3439 4296 4299 28
3440 4296 4300 28
3441 4301 4302 28
3442 4301 4303 28
3443 4301 4304 28
3444 4301 4305 28
3445 4306 4307 28
3446 4306 4308 28
3447 4306 4309 28
3448 4306 4310 28
3449 4311 4312 28
3450 4311 4313 28
3451 4311 4314 28
3452 4311 4315 28
3453 4316 4317 28
3454 4316 4318 28
3455 4316 4319 28
3456 4316 4320 28
3457 4321 4322 28
3458 4321 4323 28
3459 4321 4324 28
3460 4321 4325 28
3461 4326 4327 28
3462 4326 4328 28
3463 4326 4329 28
3464 4326 4330 28
3465 4331 4332 28
3466 4331 4333 28
3467 4331 4334 28
3468 4331 4335 28
3469 4336 4337 28
3470 4336 4338 28
3471 4336 4339 28
3472 4336 4340 28
3473 4341 4342 28
3474 4341 4343 28
3475 4341 4344 28
3476 4341 4345 28
3477 4346 4347 28
3478 4346 4348 28
3479 4346 4349 28
3480 4346 4350 28
3481 4351 4352 28
3482 4351 4353 28
3483 4351 4354 28
3484 4351 4355 28
3485 4356 4357 28
3486 4356 4358 28
3487 4356 4359 28
3488 4356 4360 28
3489 4361 4362 28
3490 4361 4363 28
3491 4361 4364 28
3492 4361 4365 28
3493 4366 4367 28
3494 4366 4368 28
3495 4366 4369 28
3496 4366 4370 28
3497 4371 4372 28
3498 4371 4373 28
3499 4371 4374 28
3500 4371 4375 28
3501 4376 4377 28
3502 4376 4378 28
3503 4376 4379 28
3504 4376 4380 28
3505 4381 4382 28
3506 4381 4383 28
3507 4381 4384 28
3508 4381 4385 28
3509 4386 4387 28
3510 4386 4388 28
3511 4386 4389 28
3512 4386 4390 28
3513 4391 4392 28
3514 4391 4393 28
3515 4391 4394 28
3516 4391 4395 28
3517 4396 4397 28
3518 4396 4398 28
3519 4396 4399 28
3520 4396 4400 28
3521 4401 4402 28
3522 4401 4403 28
3523 4401 4404 28
3524 4401 4405 28
3525 4406 4407 28
3526 4406 4408 28
3527 4406 4409 28
3528 4406 4410 28
3529 4411 4412 28
3530 4411 4413 28
3531 4411 4414 28
3532 4411 4415 28
3533 4416 4417 28
3534 4416 4418 28
3535 4416 4419 28
3536 4416 4420 28
3537 4421 4422 28
3538 4421 4423 28
3539 4421 4424 28
3540 4421 4425 28
3541 4426 4427 28
3542 4426 4428 28
3543 4426 4429 28
3544 4426 4430 28
3545 4431 4432 28
3546 4431 4433 28
3547 4431 4434 28
3548 4431 4435 28
3549 4436 4437 28
3550 4436 4438 28
3551 4436 4439 28
3552 4436 4440 28
3553 4441 4442 28
3554 4441 4443 28
3555 4441 4444 28
3556 4441 4445 28
3557 4446 4447 28
3558 4446 4448 28
3559 4446 4449 28
3560 4446 4450 28
3561 4451 4452 28
3562 4451 4453 28
3563 4451 4454 28
3564 4451 4455 28
3565 4456 4457 28
3566 4456 4458 28
3567 4456 4459 28
3568 4456 4460 28
3569 4461 4462 28
3570 4461 4463 28
3571 4461 4464 28
3572 4461 4465 28
3573 4466 4467 28
3574 4466 4468 28
3575 4466 4469 28
3576 4466 4470 28
3577 4471 4472 28
3578 4471 4473 28
3579 4471 4474 28
3580 4471 4475 28
3581 4476 4477 28
3582 4476 4478 28
3583 4476 4479 28
3584 4476 4480 28
3585 4481 4482 28
3586 4481 4483 28
3587 4481 4484 28
3588 4481 4485 28
3589 4486 4487 28
3590 4486 4488 28
3591 4486 4489 28
3592 4486 4490 28
3593 4491 4492 28
3594 4491 4493 28
3595 4491 4494 28
3596 4491 4495 28
3597 4496 4497 28
3598 4496 4498 28
3599 4496 4499 28
3600 4496 4500 28
3601 4501 4502 28
3602 4501 4503 28
3603 4501 4504 28
3604 4501 4505 28
3605 4506 4507 28
3606 4506 4508 28
3607 4506 4509 28
3608 4506 4510 28
3609 4511 4512 28
3610 4511 4513 28
3611 4511 4514 28
3612 4511 4515 28
3613 4516 4517 28
3614 4516 4518 28
3615 4516 4519 28
3616 4516 4520 28
3617 4521 4522 28
3618 4521 4523 28
3619 4521 4524 28
3620 4521 4525 28
3621 4526 4527 28
3622 4526 4528 28
3623 4526 4529 28
3624 4526 4530 28
3625 4531 4532 28
3626 4531 4533 28
3627 4531 4534 28
3628 4531 4535 28
3629 4536 4537 28
3630 4536 4538 28
3631 4536 4539 28
3632 4536 4540 28
3633 4541 4542 28
3634 4541 4543 28
3635 4541 4544 28
3636 4541 4545 28
3637 4546 4547 28
3638 4546 4548 28
3639 4546 4549 28
3640 4546 4550 28
3641 4551 4552 28
3642 4551 4553 28
3643 4551 4554 28
3644 4551 4555 28
3645 4556 4557 28
3646 4556 4558 28
3647 4556 4559 28
3648 4556 4560 28
3649 4561 4562 28
3650 4561 4563 28
3651 4561 4564 28
3652 4561 4565 28
3653 4566 4567 28
3654 4566 4568 28
3655 4566 4569 28
3656 4566 4570 28
3657 4571 4572 28
3658 4571 4573 28
3659 4571 4574 28
3660 4571 4575 28
3661 4576 4577 28
3662 4576 4578 28
3663 4576 4579 28
3664 4576 4580 28
3665 4581 4582 28
3666 4581 4583 28
3667 4581 4584 28
3668 4581 4585 28
3669 4586 4587 28
3670 4586 4588 28
3671 4586 4589 28
3672 4586 4590 28
3673 4591 4592 28
3674 4591 4593 28
3675 4591 4594 28
3676 4591 4595 28
3677 4596 4597 28
3678 4596 4598 28
3679 4596 4599 28
3680 4596 4600 28
3681 4601 4602 28
3682 4601 4603 28
3683 4601 4604 28
3684 4601 4605 28
3685 4606 4607 28
3686 4606 4608 28
3687 4606 4609 28
3688 4606 4610 28
3689 4611 4612 28
3690 4611 4613 28
3691 4611 4614 28
3692 4611 4615 28
3693 4616 4617 28
3694 4616 4618 28
3695 4616 4619 28
3696 4616 4620 28
3697 4621 4622 28
3698 4621 4623 28
3699 4621 4624 28
3700 4621 4625 28
3701 4626 4627 28
3702 4626 4628 28
3703 4626 4629 28
3704 4626 4630 28
3705 4631 4632 28
3706 4631 4633 28
3707 4631 4634 28
3708 4631 4635 28
3709 4636 4637 28
3710 4636 4638 28
3711 4636 4639 28
3712 4636 4640 28
3713 4641 4642 28
3714 4641 4643 28
3715 4641 4644 28
3716 4641 4645 28
3717 4646 4647 28
3718 4646 4648 28
3719 4646 4649 28
3720 4646 4650 28
3721 4651 4652 28
3722 4651 4653 28
3723 4651 4654 28
3724 4651 4655 28
3725 4656 4657 28
3726 4656 4658 28
3727 4656 4659 28
3728 4656 4660 28
3729 4661 4662 28
3730 4661 4663 28
3731 4661 4664 28
3732 4661 4665 28
3733 4666 4667 28
3734 4666 4668 28
3735 4666 4669 28
3736 4666 4670 28
3737 4671 4672 28
3738 4671 4673 28
3739 4671 4674 28
3740 4671 4675 28
3741 4676 4677 28
3742 4676 4678 28
3743 4676 4679 28
3744 4676 4680 28
3745 4681 4682 28
3746 4681 4683 28
3747 4681 4684 28
3748 4681 4685 28
3749 4686 4687 28
3750 4686 4688 28
3751 4686 4689 28
3752 4686 4690 28
3753 4691 4692 28
3754 4691 4693 28
3755 4691 4694 28
3756 4691 4695 28
3757 4696 4697 28
3758 4696 4698 28
3759 4696 4699 28
3760 4696 4700 28
3761 4701 4702 28
3762 4701 4703 28
3763 4701 4704 28
3764 4701 4705 28
3765 4706 4707 28
3766 4706 4708 28
3767 4706 4709 28
3768 4706 4710 28
3769 4711 4712 28
3770 4711 4713 28
3771 4711 4714 28
3772 4711 4715 28
3773 4716 4717 28
3774 4716 4718 28
3775 4716 4719 28
3776 4716 4720 28
3777 4721 4722 28
3778 4721 4723 28
3779 4721 4724 28
3780 4721 4725 28
3781 4726 4727 28
3782 4726 4728 28
3783 4726 4729 28
3784 4726 4730 28
3785 4731 4732 28
3786 4731 4733 28
3787 4731 4734 28
3788 4731 4735 28
3789 4736 4737 28
3790 4736 4738 28
3791 4736 4739 28
3792 4736 4740 28
3793 4741 4742 28
3794 4741 4743 28
3795 4741 4744 28
3796 4741 4745 28
3797 4746 4747 28
3798 4746 4748 28
3799 4746 4749 28
3800 4746 4750 28
3801 4751 4752 28
3802 4751 4753 28
3803 4751 4754 28
3804 4751 4755 28
3805 4756 4757 28
3806 4756 4758 28
3807 4756 4759 28
3808 4756 4760 28
3809 4761 4762 28
3810 4761 4763 28
3811 4761 4764 28
3812 4761 4765 28
3813 4766 4767 28
3814 4766 4768 28
3815 4766 4769 28
3816 4766 4770 28
3817 4771 4772 28
3818 4771 4773 28
3819 4771 4774 28
3820 4771 4775 28
3821 4776 4777 28
3822 4776 4778 28
3823 4776 4779 28
3824 4776 4780 28
3825 4781 4782 28
3826 4781 4783 28
3827 4781 4784 28
3828 4781 4785 28
3829 4786 4787 28
3830 4786 4788 28
3831 4786 4789 28
3832 4786 4790 28
3833 4791 4792 28
3834 4791 4793 28
3835 4791 4794 28
3836 4791 4795 28
3837 4796 4797 28
3838 4796 4798 28
3839 4796 4799 28
3840 4796 4800 28
3841 4801 4802 28
3842 4801 4803 28
3843 4801 4804 28
3844 4801 4805 28
3845 4806 4807 28
3846 4806 4808 28
3847 4806 4809 28
3848 4806 4810 28
3849 4811 4812 28
3850 4811 4813 28
3851 4811 4814 28
3852 4811 4815 28
3853 4816 4817 28
3854 4816 4818 28
3855 4816 4819 28
3856 4816 4820 28
3857 4821 4822 28
3858 4821 4823 28
3859 4821 4824 28
3860 4821 4825 28
3861 4826 4827 28
3862 4826 4828 28
3863 4826 4829 28
3864 4826 4830 28
3865 4831 4832 28
3866 4831 4833 28
3867 4831 4834 28
3868 4831 4835 28
3869 4836 4837 28
3870 4836 4838 28
3871 4836 4839 28
3872 4836 4840 28
3873 4841 4842 28
3874 4841 4843 28
3875 4841 4844 28
3876 4841 4845 28
3877 4846 4847 28
3878 4846 4848 28
3879 4846 4849 28
3880 4846 4850 28
3881 4851 4852 28
3882 4851 4853 28
3883 4851 4854 28
3884 4851 4855 28
3885 4856 4857 28
3886 4856 4858 28
3887 4856 4859 28
3888 4856 4860 28
3889 4861 4862 28
3890 4861 4863 28
3891 4861 4864 28
3892 4861 4865 28
3893 4866 4867 28
3894 4866 4868 28
3895 4866 4869 28
3896 4866 4870 28
3897 4871 4872 28
3898 4871 4873 28
3899 4871 4874 28
3900 4871 4875 28
3901 4876 4877 28
3902 4876 4878 28
3903 4876 4879 28
3904 4876 4880 28
3905 4881 4882 28
3906 4881 4883 28
3907 4881 4884 28
3908 4881 4885 28
3909 4886 4887 28
3910 4886 4888 28
3911 4886 4889 28
3912 4886 4890 28
3913 4891 4892 28
3914 4891 4893 28
3915 4891 4894 28
3916 4891 4895 28
3917 4896 4897 28
3918 4896 4898 28
3919 4896 4899 28
3920 4896 4900 28
3921 4901 4902 28
3922 4901 4903 28
3923 4901 4904 28
3924 4901 4905 28
3925 4906 4907 28
3926 4906 4908 28
3927 4906 4909 28
3928 4906 4910 28
3929 4911 4912 28
3930 4911 4913 28
3931 4911 4914 28
3932 4911 4915 28
3933 4916 4917 28
3934 4916 4918 28
3935 4916 4919 28
3936 4916 4920 28
3937 4921 4922 28
3938 4921 4923 28
3939 4921 4924 28
3940 4921 4925 28
3941 4926 4927 28
3942 4926 4928 28
3943 4926 4929 28
3944 4926 4930 28
3945 4931 4932 28
3946 4931 4933 28
3947 4931 4934 28
3948 4931 4935 28
3949 4936 4937 28
3950 4936 4938 28
3951 4936 4939 28
3952 4936 4940 28
3953 4941 4942 28
3954 4941 4943 28
3955 4941 4944 28
3956 4941 4945 28
3957 4946 4947 28
3958 4946 4948 28
3959 4946 4949 28
3960 4946 4950 28
3961 4951 4952 28
3962 4951 4953 28
3963 4951 4954 28
3964 4951 4955 28
3965 4956 4957 28
3966 4956 4958 28
3967 4956 4959 28
3968 4956 4960 28
3969 4961 4962 28
3970 4961 4963 28
3971 4961 4964 28
3972 4961 4965 28
3973 4966 4967 28
3974 4966 4968 28
3975 4966 4969 28
3976 4966 4970 28
3977 4971 4972 28
3978 4971 4973 28
3979 4971 4974 28
3980 4971 4975 28
3981 4976 4977 28
3982 4976 4978 28
3983 4976 4979 28
3984 4976 4980 28
3985 4981 4982 28
3986 4981 4983 28
3987 4981 4984 28
3988 4981 4985 28
3989 4986 4987 28
3990 4986 4988 28
3991 4986 4989 28
3992 4986 4990 28
3993 4991 4992 28
3994 4991 4993 28
3995 4991 4994 28
3996 4991 4995 28
3997 4996 4997 28
3998 4996 4998 28
3999 4996 4999 28
4000 4996 5000 28
4001 5001 5002 28
4002 5001 5003 28
4003 5001 5004 28
4004 5001 5005 28
4005 5006 5007 28
4006 5006 5008 28
4007 5006 5009 28
4008 5006 5010 28
4009 5011 5012 28
4010 5011 5013 28
4011 5011 5014 28
4012 5011 5015 28
4013 5016 5017 28
4014 5016 5018 28
4015 5016 5019 28
4016 5016 5020 28
4017 5021 5022 28
4018 5021 5023 28
4019 5021 5024 28
4020 5021 5025 28
4021 5026 5027 28
4022 5026 5028 28
4023 5026 5029 28
4024 5026 5030 28
4025 5031 5032 28
4026 5031 5033 28
4027 5031 5034 28
4028 5031 5035 28
4029 5036 5037 28
4030 5036 5038 28
4031 5036 5039 28
4032 5036 5040 28
4033 5041 5042 28
4034 5041 5043 28
4035 5041 5044 28
4036 5041 5045 28
4037 5046 5047 28
4038 5046 5048 28
4039 5046 5049 28
4040 5046 5050 28
4041 5051 5052 28
4042 5051 5053 28
4043 5051 5054 28
4044 5051 5055 28
4045 5056 5057 28
4046 5056 5058 28
4047 5056 5059 28
4048 5056 5060 28
4049 5061 5062 28
4050 5061 5063 28
4051 5061 5064 28
4052 5061 5065 28
4053 5066 5067 28
4054 5066 5068 28
4055 5066 5069 28
4056 5066 5070 28
4057 5071 5072 28
4058 5071 5073 28
4059 5071 5074 28
4060 5071 5075 28
4061 5076 5077 28
4062 5076 5078 28
4063 5076 5079 28
4064 5076 5080 28
4065 5081 5082 28
4066 5081 5083 28
4067 5081 5084 28
4068 5081 5085 28
4069 5086 5087 28
4070 5086 5088 28
4071 5086 5089 28
4072 5086 5090 28
4073 5091 5092 28
4074 5091 5093 28
4075 5091 5094 28
4076 5091 5095 28
4077 5096 5097 28
4078 5096 5098 28
4079 5096 5099 28
4080 5096 5100 28
4081 5101 5102 28
4082 5101 5103 28
4083 5101 5104 28
4084 5101 5105 28
4085 5106 5107 28
4086 5106 5108 28
4087 5106 5109 28
4088 5106 5110 28
4089 5111 5112 28
4090 5111 5113 28
4091 5111 5114 28
4092 5111 5115 28
4093 5116 5117 28
4094 5116 5118 28
4095 5116 5119 28
4096 5116 5120 28
4097 5121 5122 28
4098 5121 5123 28
4099 5121 5124 28
4100 5121 5125 28
4101 5126 5127 28
4102 5126 5128 28
4103 5126 5129 28
4104 5126 5130 28
4105 5131 5132 28
4106 5131 5133 28
4107 5131 5134 28
4108 5131 5135 28
4109 5136 5137 28
4110 5136 5138 28
4111 5136 5139 28
4112 5136 5140 28
4113 5141 5142 28
4114 5141 5143 28
4115 5141 5144 28
4116 5141 5145 28
4117 5146 5147 28
4118 5146 5148 28
4119 5146 5149 28
4120 5146 5150 28
4121 5151 5152 28
4122 5151 5153 28
4123 5151 5154 28
4124 5151 5155 28
4125 5156 5157 28
4126 5156 5158 28
4127 5156 5159 28
4128 5156 5160 28
4129 5161 5162 28
4130 5161 5163 28
4131 5161 5164 28
4132 5161 5165 28
4133 5166 5167 28
4134 5166 5168 28
4135 5166 5169 28
4136 5166 5170 28
4137 5171 5172 28
4138 5171 5173 28
4139 5171 5174 28
4140 5171 5175 28
4141 5176 5177 28
4142 5176 5178 28
4143 5176 5179 28
4144 5176 5180 28
4145 5181 5182 28
4146 5181 5183 28
4147 5181 5184 28
4148 5181 5185 28
4149 5186 5187 28
4150 5186 5188 28
4151 5186 5189 28
4152 5186 5190 28
4153 5191 5192 28
4154 5191 5193 28
4155 5191 5194 28
4156 5191 5195 28
4157 5196 5197 28
4158 5196 5198 28
4159 5196 5199 28
4160 5196 5200 28
4161 5201 5202 28
4162 5201 5203 28
4163 5201 5204 28
4164 5201 5205 28
4165 5206 5207 28
4166 5206 5208 28
4167 5206 5209 28
4168 5206 5210 28
4169 5211 5212 28
4170 5211 5213 28
4171 5211 5214 28
4172 5211 5215 28
4173 5216 5217 28
4174 5216 5218 28
4175 5216 5219 28
4176 5216 5220 28
4177 5221 5222 28
4178 5221 5223 28
4179 5221 5224 28
4180 5221 5225 28
4181 5226 5227 28
4182 5226 5228 28
4183 5226 5229 28
4184 5226 5230 28
4185 5231 5232 28
4186 5231 5233 28
4187 5231 5234 28
4188 5231 5235 28
4189 5236 5237 28
4190 5236 5238 28
4191 5236 5239 28
4192 5236 5240 28
4193 5241 5242 28
4194 5241 5243 28
4195 5241 5244 28
4196 5241 5245 28
4197 5246 5247 28
4198 5246 5248 28
4199 5246 5249 28
4200 5246 5250 28
4201 5251 5252 28
4202 5251 5253 28
4203 5251 5254 28
4204 5251 5255 28
4205 5256 5257 28
4206 5256 5258 28
4207 5256 5259 28
4208 5256 5260 28
4209 5261 5262 28
4210 5261 5263 28
4211 5261 5264 28
4212 5261 5265 28
4213 5266 5267 28
4214 5266 5268 28
4215 5266 5269 28
4216 5266 5270 28
4217 5271 5272 28
4218 5271 5273 28
4219 5271 5274 28
4220 5271 5275 28
4221 5276 5277 28
4222 5276 5278 28
4223 5276 5279 28
4224 5276 5280 28
4225 5281 5282 28
4226 5281 5283 28
4227 5281 5284 28
4228 5281 5285 28
4229 5286 5287 28
4230 5286 5288 28
4231 5286 5289 28
4232 5286 5290 28
4233 5291 5292 28
4234 5291 5293 28
4235 5291 5294 28
4236 5291 5295 28
4237 5296 5297 28
4238 5296 5298 28
4239 5296 5299 28
4240 5296 5300 28
4241 5301 5302 28
4242 5301 5303 28
4243 5301 5304 28
4244 5301 5305 28
4245 5306 5307 28
4246 5306 5308 28
4247 5306 5309 28
4248 5306 5310 28
4249 5311 5312 28
4250 5311 5313 28
4251 5311 5314 28
4252 5311 5315 28
4253 5316 5317 28
4254 5316 5318 28
4255 5316 5319 28
4256 5316 5320 28
4257 5321 5322 28
4258 5321 5323 28
4259 5321 5324 28
4260 5321 5325 28
4261 5326 5327 28
4262 5326 5328 28
4263 5326 5329 28
4264 5326 5330 28
4265 5331 5332 28
4266 5331 5333 28
4267 5331 5334 28
4268 5331 5335 28
4269 5336 5337 28
4270 5336 5338 28
4271 5336 5339 28
4272 5336 5340 28
4273 5341 5342 28
4274 5341 5343 28
4275 5341 5344 28
4276 5341 5345 28
4277 5346 5347 28
4278 5346 5348 28
4279 5346 5349 28
4280 5346 5350 28
4281 5351 5352 28
4282 5351 5353 28
4283 5351 5354 28
4284 5351 5355 28
4285 5356 5357 28
4286 5356 5358 28
4287 5356 5359 28
4288 5356 5360 28
4289 5361 5362 28
4290 5361 5363 28
4291 5361 5364 28
4292 5361 5365 28
4293 5366 5367 28
4294 5366 5368 28
4295 5366 5369 28
4296 5366 5370 28
4297 5371 5372 28
4298 5371 5373 28
4299 5371 5374 28
4300 5371 5375 28
4301 5376 5377 28
4302 5376 5378 28
4303 5376 5379 28
4304 5376 5380 28
4305 5381 5382 28
4306 5381 5383 28
4307 5381 5384 28
4308 5381 5385 28
4309 5386 5387 28
4310 5386 5388 28
4311 5386 5389 28
4312 5386 5390 28
4313 5391 5392 28
4314 5391 5393 28
4315 5391 5394 28
4316 5391 5395 28
4317 5396 5397 28
4318 5396 5398 28
4319 5396 5399 28
4320 5396 5400 28
4321 5401 5402 28
4322 5401 5403 28
4323 5401 5404 28
4324 5401 5405 28
4325 5406 5407 28
4326 5406 5408 28
4327 5406 5409 28
4328 5406 5410 28
4329 5411 5412 28
4330 5411 5413 28
4331 5411 5414 28
4332 5411 5415 28
4333 5416 5417 28
4334 5416 5418 28
4335 5416 5419 28
4336 5416 5420 28
4337 5421 5422 28
4338 5421 5423 28
4339 5421 5424 28
4340 5421 5425 28
4341 5426 5427 28
4342 5426 5428 28
4343 5426 5429 28
4344 5426 5430 28
4345 5431 5432 28
4346 5431 5433 28
4347 5431 5434 28
4348 5431 5435 28
4349 5436 5437 28
4350 5436 5438 28
4351 5436 5439 28
4352 5436 5440 28
4353 5441 5442 28
4354 5441 5443 28
4355 5441 5444 28
4356 5441 5445 28
4357 5446 5447 28
4358 5446 5448 28
4359 5446 5449 28
4360 5446 5450 28
4361 5451 5452 28
4362 5451 5453 28
4363 5451 5454 28
4364 5451 5455 28
4365 5456 5457 28
4366 5456 5458 28
4367 5456 5459 28
4368 5456 5460 28
4369 5461 5462 28
4370 5461 5463 28
4371 5461 5464 28
4372 5461 5465 28
4373 5466 5467 28
4374 5466 5468 28
4375 5466 5469 28
4376 5466 5470 28
4377 5471 5472 28
4378 5471 5473 28
4379 5471 5474 28
4380 5471 5475 28
4381 5476 5477 28
4382 5476 5478 28
4383 5476 5479 28
4384 5476 5480 28
4385 5481 5482 28
4386 5481 5483 28
4387 5481 5484 28
4388 5481 5485 28
4389 5486 5487 28
4390 5486 5488 28
4391 5486 5489 28
4392 5486 5490 28
4393 5491 5492 28
4394 5491 5493 28
4395 5491 5494 28
4396 5491 5495 28
4397 5496 5497 28
4398 5496 5498 28
4399 5496 5499 28
4400 5496 5500 28
4401 5501 5502 28
4402 5501 5503 28
4403 5501 5504 28
4404 5501 5505 28
4405 5506 5507 28
4406 5506 5508 28
4407 5506 5509 28
4408 5506 5510 28
4409 5511 5512 28
4410 5511 5513 28
4411 5511 5514 28
4412 5511 5515 28
4413 5516 5517 28
4414 5516 5518 28
4415 5516 5519 28
4416 5516 5520 28
4417 5521 5522 28
4418 5521 5523 28
4419 5521 5524 28
4420 5521 5525 28
4421 5526 5527 28
4422 5526 5528 28
4423 5526 5529 28
4424 5526 5530 28
4425 5531 5532 28
4426 5531 5533 28
4427 5531 5534 28
4428 5531 5535 28
4429 5536 5537 28
4430 5536 5538 28
4431 5536 5539 28
4432 5536 5540 28
4433 5541 5542 28
4434 5541 5543 28
4435 5541 5544 28
4436 5541 5545 28
4437 5546 5547 28
4438 5546 5548 28
4439 5546 5549 28
4440 5546 5550 28
4441 5551 5552 28
4442 5551 5553 28
4443 5551 5554 28
4444 5551 5555 28
4445 5556 5557 28
4446 5556 5558 28
4447 5556 5559 28
4448 5556 5560 28
4449 5561 5562 28
4450 5561 5563 28
4451 5561 5564 28
4452 5561 5565 28
4453 5566 5567 28
4454 5566 5568 28
4455 5566 5569 28
4456 5566 5570 28
4457 5571 5572 28
4458 5571 5573 28
4459 5571 5574 28
4460 5571 5575 28
4461 5576 5577 28
4462 5576 5578 28
4463 5576 5579 28
4464 5576 5580 28
4465 5581 5582 28
4466 5581 5583 28
4467 5581 5584 28
4468 5581 5585 28
4469 5586 5587 28
4470 5586 5588 28
4471 5586 5589 28
4472 5586 5590 28
4473 5591 5592 28
4474 5591 5593 28
4475 5591 5594 28
4476 5591 5595 28
4477 5596 5597 28
4478 5596 5598 28
4479 5596 5599 28
4480 5596 5600 28
4481 5601 5602 28
4482 5601 5603 28
4483 5601 5604 28
4484 5601 5605 28
4485 5606 5607 28
4486 5606 5608 28
4487 5606 5609 28
4488 5606 5610 28
4489 5611 5612 28
4490 5611 5613 28
4491 5611 5614 28
4492 5611 5615 28
4493 5616 5617 28
4494 5616 5618 28
4495 5616 5619 28
4496 5616 5620 28
4497 5621 5622 28
4498 5621 5623 28
4499 5621 5624 28
4500 5621 5625 28
4501 5626 5627 28
4502 5626 5628 28
4503 5626 5629 28
4504 5626 5630 28
4505 5631 5632 28
4506 5631 5633 28
4507 5631 5634 28
4508 5631 5635 28
4509 5636 5637 28
4510 5636 5638 28
4511 5636 5639 28
4512 5636 5640 28
4513 5641 5642 28
4514 5641 5643 28
4515 5641 5644 28
4516 5641 5645 28
4517 5646 5647 28
4518 5646 5648 28
4519 5646 5649 28
4520 5646 5650 28
4521 5651 5652 28
4522 5651 5653 28
4523 5651 5654 28
4524 5651 5655 28
4525 5656 5657 28
4526 5656 5658 28
4527 5656 5659 28
4528 5656 5660 28
4529 5661 5662 28
4530 5661 5663 28
4531 5661 5664 28
4532 5661 5665 28
4533 5666 5667 28
4534 5666 5668 28
4535 5666 5669 28
4536 5666 5670 28
4537 5671 5672 28
4538 5671 5673 28
4539 5671 5674 28
4540 5671 5675 28
4541 5676 5677 28
4542 5676 5678 28
4543 5676 5679 28
4544 5676 5680 28
4545 5681 5682 28
4546 5681 5683 28
4547 5681 5684 28
4548 5681 5685 28
4549 5686 5687 28
4550 5686 5688 28
4551 5686 5689 28
4552 5686 5690 28
4553 5691 5692 28
4554 5691 5693 28
4555 5691 5694 28
4556 5691 5695 28
4557 5696 5697 28
4558 5696 5698 28
4559 5696 5699 28
4560 5696 5700 28
4561 5701 5702 28
4562 5701 5703 28
4563 5701 5704 28
4564 5701 5705 28
4565 5706 5707 28
4566 5706 5708 28
4567 5706 5709 28
4568 5706 5710 28
4569 5711 5712 28
4570 5711 5713 28
4571 5711 5714 28
4572 5711 5715 28
4573 5716 5717 28
4574 5716 5718 28
4575 5716 5719 28
4576 5716 5720 28
4577 5721 5722 28
4578 5721 5723 28
4579 5721 5724 28
4580 5721 5725 28
4581 5726 5727 28
4582 5726 5728 28
4583 5726 5729 28
4584 5726 5730 28
4585 5731 5732 28
4586 5731 5733 28
4587 5731 5734 28
4588 5731 5735 28
4589 5736 5737 28
4590 5736 5738 28
4591 5736 5739 28
4592 5736 5740 28
4593 5741 5742 28
4594 5741 5743 28
4595 5741 5744 28
4596 5741 5745 28
4597 5746 5747 28
4598 5746 5748 28
4599 5746 5749 28
4600 5746 5750 28
4601 5751 5752 28
4602 5751 5753 28
4603 5751 5754 28
4604 5751 5755 28
4605 5756 5757 28
4606 5756 5758 28
4607 5756 5759 28
4608 5756 5760 28
4609 5761 5762 28
4610 5761 5763 28
4611 5761 5764 28
4612 5761 5765 28
4613 5766 5767 28
4614 5766 5768 28
4615 5766 5769 28
4616 5766 5770 28
4617 5771 5772 28
4618 5771 5773 28
4619 5771 5774 28
4620 5771 5775 28
4621 5776 5777 28
4622 5776 5778 28
4623 5776 5779 28
4624 5776 5780 28
4625 5781 5782 28
4626 5781 5783 28
4627 5781 5784 28
4628 5781 5785 28
4629 5786 5787 28
4630 5786 5788 28
4631 5786 5789 28
4632 5786 5790 28
4633 5791 5792 28
4634 5791 5793 28
4635 5791 5794 28
4636 5791 5795 28
4637 5796 5797 28
4638 5796 5798 28
4639 5796 5799 28
4640 5796 5800 28
4641 5801 5802 28
4642 5801 5803 28
4643 5801 5804 28
4644 5801 5805 28
4645 5806 5807 28
4646 5806 5808 28
4647 5806 5809 28
4648 5806 5810 28
4649 5811 5812 28
4650 5811 5813 28
4651 5811 5814 28
4652 5811 5815 28
4653 5816 5817 28
4654 5816 5818 28
4655 5816 5819 28
4656 5816 5820 28
4657 5821 5822 28
4658 5821 5823 28
4659 5821 5824 28
4660 5821 5825 28
4661 5826 5827 28
4662 5826 5828 28
4663 5826 5829 28
4664 5826 5830 28
4665 5831 5832 28
4666 5831 5833 28
4667 5831 5834 28
4668 5831 5835 28
4669 5836 5837 28
4670 5836 5838 28
4671 5836 5839 28
4672 5836 5840 28
4673 5841 5842 28
4674 5841 5843 28
4675 5841 5844 28
4676 5841 5845 28
4677 5846 5847 28
4678 5846 5848 28
4679 5846 5849 28
4680 5846 5850 28
4681 5851 5852 28
4682 5851 5853 28
4683 5851 5854 28
4684 5851 5855 28
4685 5856 5857 28
4686 5856 5858 28
4687 5856 5859 28
4688 5856 5860 28
4689 5861 5862 28
4690 5861 5863 28
4691 5861 5864 28
4692 5861 5865 28
4693 5866 5867 28
4694 5866 5868 28
4695 5866 5869 28
4696 5866 5870 28
4697 5871 5872 28
4698 5871 5873 28
4699 5871 5874 28
4700 5871 5875 28
4701 5876 5877 28
4702 5876 5878 28
4703 5876 5879 28
4704 5876 5880 28
4705 5881 5882 28
4706 5881 5883 28
4707 5881 5884 28
4708 5881 5885 28
4709 5886 5887 28
4710 5886 5888 28
4711 5886 5889 28
4712 5886 5890 28
4713 5891 5892 28
4714 5891 5893 28
4715 5891 5894 28
4716 5891 5895 28
4717 5896 5897 28
4718 5896 5898 28
4719 5896 5899 28
4720 5896 5900 28
4721 5901 5902 28
4722 5901 5903 28
4723 5901 5904 28
4724 5901 5905 28
4725 5906 5907 28
4726 5906 5908 28
4727 5906 5909 28
4728 5906 5910 28
4729 5911 5912 28
4730 5911 5913 28
4731 5911 5914 28
4732 5911 5915 28
4733 5916 5917 28
4734 5916 5918 28
4735 5916 5919 28
4736 5916 5920 28
4737 5921 5922 28
4738 5921 5923 28
4739 5921 5924 28
4740 5921 5925 28
4741 5926 5927 28
4742 5926 5928 28
4743 5926 5929 28
4744 5926 5930 28
4745 5931 5932 28
4746 5931 5933 28
4747 5931 5934 28
4748 5931 5935 28
4749 5936 5937 28
4750 5936 5938 28
4751 5936 5939 28
4752 5936 5940 28
4753 5941 5942 28
4754 5941 5943 28
4755 5941 5944 28
4756 5941 5945 28
4757 5946 5947 28
4758 5946 5948 28
4759 5946 5949 28
4760 5946 5950 28
4761 5951 5952 28
4762 5951 5953 28
4763 5951 5954 28
4764 5951 5955 28
4765 5956 5957 28
4766 5956 5958 28
4767 5956 5959 28
4768 5956 5960 28
4769 5961 5962 28
4770 5961 5963 28
4771 5961 5964 28
4772 5961 5965 28
4773 5966 5967 28
4774 5966 5968 28
4775 5966 5969 28
4776 5966 5970 28
4777 5971 5972 28
4778 5971 5973 28
4779 5971 5974 28
4780 5971 5975 28
4781 5976 5977 28
4782 5976 5978 28
4783 5976 5979 28
4784 5976 5980 28
4785 5981 5982 28
4786 5981 5983 28
4787 5981 5984 28
4788 5981 5985 28
4789 5986 5987 28
4790 5986 5988 28
4791 5986 5989 28
4792 5986 5990 28
4793 5991 5992 28
4794 5991 5993 28
4795 5991 5994 28
4796 5991 5995 28
4797 5996 5997 28
4798 5996 5998 28
4799 5996 5999 28
4800 5996 6000 28
4801 6001 6002 28
4802 6001 6003 28
4803 6001 6004 28
4804 6001 6005 28
4805 6006 6007 28
4806 6006 6008 28
4807 6006 6009 28
4808 6006 6010 28
4809 6011 6012 28
4810 6011 6013 28
4811 6011 6014 28
4812 6011 6015 28
4813 6016 6017 28
4814 6016 6018 28
4815 6016 6019 28
4816 6016 6020 28
4817 6021 6022 28
4818 6021 6023 28
4819 6021 6024 28
4820 6021 6025 28
4821 6026 6027 28
4822 6026 6028 28
4823 6026 6029 28
4824 6026 6030 28
4825 6031 6032 28
4826 6031 6033 28
4827 6031 6034 28
4828 6031 6035 28
4829 6036 6037 28
4830 6036 6038 28
4831 6036 6039 28
4832 6036 6040 28
4833 6041 6042 28
4834 6041 6043 28
4835 6041 6044 28
4836 6041 6045 28
4837 6046 6047 28
4838 6046 6048 28
4839 6046 6049 28
4840 6046 6050 28
4841 6051 6052 28
4842 6051 6053 28
4843 6051 6054 28
4844 6051 6055 28
4845 6056 6057 28
4846 6056 6058 28
4847 6056 6059 28
4848 6056 6060 28
4849 6061 6062 28
4850 6061 6063 28
4851 6061 6064 28
4852 6061 6065 28
4853 6066 6067 28
4854 6066 6068 28
4855 6066 6069 28
4856 6066 6070 28
4857 6071 6072 28
4858 6071 6073 28
4859 6071 6074 28
4860 6071 6075 28
4861 6076 6077 28
4862 6076 6078 28
4863 6076 6079 28
4864 6076 6080 28
4865 6081 6082 28
4866 6081 6083 28
4867 6081 6084 28
4868 6081 6085 28
4869 6086 6087 28
4870 6086 6088 28
4871 6086 6089 28
4872 6086 6090 28
4873 6091 6092 28
4874 6091 6093 28
4875 6091 6094 28
4876 6091 6095 28
4877 6096 6097 28
4878 6096 6098 28
4879 6096 6099 28
4880 6096 6100 28
4881 6101 6102 28
4882 6101 6103 28
4883 6101 6104 28
4884 6101 6105 28
4885 6106 6107 28
4886 6106 6108 28
4887 6106 6109 28
4888 6106 6110 28
4889 6111 6112 28
4890 6111 6113 28
4891 6111 6114 28
4892 6111 6115 28
4893 6116 6117 28
4894 6116 6118 28
4895 6116 6119 28
4896 6116 6120 28
4897 6121 6122 28
4898 6121 6123 28
4899 6121 6124 28
4900 6121 6125 28
4901 6126 6127 28
4902 6126 6128 28
4903 6126 6129 28
4904 6126 6130 28
4905 6131 6132 28
4906 6131 6133 28
4907 6131 6134 28
4908 6131 6135 28
4909 6136 6137 28
4910 6136 6138 28
4911 6136 6139 28
4912 6136 6140 28
4913 6141 6142 28
4914 6141 6143 28
4915 6141 6144 28
4916 6141 6145 28
4917 6146 6147 28
4918 6146 6148 28
4919 6146 6149 28
4920 6146 6150 28
4921 6151 6152 28
4922 6151 6153 28
4923 6151 6154 28
4924 6151 6155 28
4925 6156 6157 28
4926 6156 6158 28
4927 6156 6159 28
4928 6156 6160 28
4929 6161 6162 28
4930 6161 6163 28
4931 6161 6164 28
4932 6161 6165 28
4933 6166 6167 28
4934 6166 6168 28
4935 6166 6169 28
4936 6166 6170 28
4937 6171 6172 28
4938 6171 6173 28
4939 6171 6174 28
4940 6171 6175 28
4941 6176 6177 28
4942 6176 6178 28
4943 6176 6179 28
4944 6176 6180 28
4945 6181 6182 28
4946 6181 6183 28
4947 6181 6184 28
4948 6181 6185 28
4949 6186 6187 28
4950 6186 6188 28
4951 6186 6189 28
4952 6186 6190 28
4953 6191 6192 28
4954 6191 6193 28
4955 6191 6194 28
4956 6191 6195 28
4957 6196 6197 28
4958 6196 6198 28
4959 6196 6199 28
4960 6196 6200 28
4961 6201 6202 28
4962 6201 6203 28
4963 6201 6204 28
4964 6201 6205 28
4965 6206 6207 28
4966 6206 6208 28
4967 6206 6209 28
4968 6206 6210 28
4969 6211 6212 28
4970 6211 6213 28
4971 6211 6214 28
4972 6211 6215 28
4973 6216 6217 28
4974 6216 6218 28
4975 6216 6219 28
4976 6216 6220 28
4977 6221 6222 28
4978 6221 6223 28
4979 6221 6224 28
4980 6221 6225 28
4981 6226 6227 28
4982 6226 6228 28
4983 6226 6229 28
4984 6226 6230 28
4985 6231 6232 28
4986 6231 6233 28
4987 6231 6234 28
4988 6231 6235 28
4989 6236 6237 28
4990 6236 6238 28
4991 6236 6239 28
4992 6236 6240 28
4993 6241 6242 28
4994 6241 6243 28
4995 6241 6244 28
4996 6241 6245 28
4997 6246 6247 28
4998 6246 6248 28
4999 6246 6249 28
5000 6246 6250 28
5001 6251 6252 28
5002 6251 6253 28
5003 6251 6254 28
5004 6251 6255 28
5005 6256 6257 28
5006 6256 6258 28
5007 6256 6259 28
5008 6256 6260 28
5009 6261 6262 28
5010 6261 6263 28
5011 6261 6264 28
5012 6261 6265 28
5013 6266 6267 28
5014 6266 6268 28
5015 6266 6269 28
5016 6266 6270 28
5017 6271 6272 28
5018 6271 6273 28
5019 6271 6274 28
5020 6271 6275 28
5021 6276 6277 28
5022 6276 6278 28
5023 6276 6279 28
5024 6276 6280 28
5025 6281 6282 28
5026 6281 6283 28
5027 6281 6284 28
5028 6281 6285 28
5029 6286 6287 28
5030 6286 6288 28
5031 6286 6289 28
5032 6286 6290 28
5033 6291 6292 28
5034 6291 6293 28
5035 6291 6294 28
5036 6291 6295 28
5037 6296 6297 28
5038 6296 6298 28
5039 6296 6299 28
5040 6296 6300 28
5041 6301 6302 28
5042 6301 6303 28
5043 6301 6304 28
5044 6301 6305 28
5045 6306 6307 28
5046 6306 6308 28
5047 6306 6309 28
5048 6306 6310 28
5049 6311 6312 28
5050 6311 6313 28
5051 6311 6314 28
5052 6311 6315 28
5053 6316 6317 28
5054 6316 6318 28
5055 6316 6319 28
5056 6316 6320 28
5057 6321 6322 28
5058 6321 6323 28
5059 6321 6324 28
5060 6321 6325 28
5061 6326 6327 28
5062 6326 6328 28
5063 6326 6329 28
5064 6326 6330 28
5065 6331 6332 28
5066 6331 6333 28
5067 6331 6334 28
5068 6331 6335 28
5069 6336 6337 28
5070 6336 6338 28
5071 6336 6339 28
5072 6336 6340 28
5073 6341 6342 28
5074 6341 6343 28
5075 6341 6344 28
5076 6341 6345 28
5077 6346 6347 28
5078 6346 6348 28
5079 6346 6349 28
5080 6346 6350 28
5081 6351 6352 28
5082 6351 6353 28
5083 6351 6354 28
5084 6351 6355 28
5085 6356 6357 28
5086 6356 6358 28
5087 6356 6359 28
5088 6356 6360 28
5089 6361 6362 28
5090 6361 6363 28
5091 6361 6364 28
5092 6361 6365 28
5093 6366 6367 28
5094 6366 6368 28
5095 6366 6369 28
5096 6366 6370 28
5097 6371 6372 28
5098 6371 6373 28
5099 6371 6374 28
5100 6371 6375 28
5101 6376 6377 28
5102 6376 6378 28
5103 6376 6379 28
5104 6376 6380 28
5105 6381 6382 28
5106 6381 6383 28
5107 6381 6384 28
5108 6381 6385 28
5109 6386 6387 28
5110 6386 6388 28
5111 6386 6389 28
5112 6386 6390 28
5113 6391 6392 28
5114 6391 6393 28
5115 6391 6394 28
5116 6391 6395 28
5117 6396 6397 28
5118 6396 6398 28
5119 6396 6399 28
5120 6396 6400 28
5121 6401 6402 28
5122 6401 6403 28
5123 6401 6404 28
5124 6401 6405 28
5125 6406 6407 28
5126 6406 6408 28
5127 6406 6409 28
5128 6406 6410 28
5129 6411 6412 28
5130 6411 6413 28
5131 6411 6414 28
5132 6411 6415 28
5133 6416 6417 28
5134 6416 6418 28
5135 6416 6419 28
5136 6416 6420 28
5137 6421 6422 28
5138 6421 6423 28
5139 6421 6424 28
5140 6421 6425 28
5141 6426 6427 28
5142 6426 6428 28
5143 6426 6429 28
5144 6426 6430 28
5145 6431 6432 28
5146 6431 6433 28
5147 6431 6434 28
5148 6431 6435 28
5149 6436 6437 28
5150 6436 6438 28
5151 6436 6439 28
5152 6436 6440 28
5153 6441 6442 28
5154 6441 6443 28
5155 6441 6444 28
5156 6441 6445 28
5157 6446 6447 28
5158 6446 6448 28
5159 6446 6449 28
5160 6446 6450 28
5161 6451 6452 28
5162 6451 6453 28
5163 6451 6454 28
5164 6451 6455 28
5165 6456 6457 28
5166 6456 6458 28
5167 6456 6459 28
5168 6456 6460 28
5169 6461 6462 28
5170 6461 6463 28
5171 6461 6464 28
5172 6461 6465 28
5173 6466 6467 28
5174 6466 6468 28
5175 6466 6469 28
5176 6466 6470 28
5177 6471 6472 28
5178 6471 6473 28
5179 6471 6474 28
5180 6471 6475 28
5181 6476 6477 28
5182 6476 6478 28
5183 6476 6479 28
5184 6476 6480 28
5185 6481 6482 28
5186 6481 6483 28
5187 6481 6484 28
5188 6481 6485 28
5189 6486 6487 28
5190 6486 6488 28
5191 6486 6489 28
5192 6486 6490 28
5193 6491 6492 28
5194 6491 6493 28
5195 6491 6494 28
5196 6491 6495 28
5197 6496 6497 28
5198 6496 6498 28
5199 6496 6499 28
5200 6496 6500 28
5201 6501 6502 28
5202 6501 6503 28
5203 6501 6504 28
5204 6501 6505 28
5205 6506 6507 28
5206 6506 6508 28
5207 6506 6509 28
5208 6506 6510 28
5209 6511 6512 28
5210 6511 6513 28
5211 6511 6514 28
5212 6511 6515 28
5213 6516 6517 28
5214 6516 6518 28
5215 6516 6519 28
5216 6516 6520 28
5217 6521 6522 28
5218 6521 6523 28
5219 6521 6524 28
5220 6521 6525 28
5221 6526 6527 28
5222 6526 6528 28
5223 6526 6529 28
5224 6526 6530 28
5225 6531 6532 28
5226 6531 6533 28
5227 6531 6534 28
5228 6531 6535 28
5229 6536 6537 28
5230 6536 6538 28
5231 6536 6539 28
5232 6536 6540 28
5233 6541 6542 28
5234 6541 6543 28
5235 6541 6544 28
5236 6541 6545 28
5237 6546 6547 28
5238 6546 6548 28
5239 6546 6549 28
5240 6546 6550 28
5241 6551 6552 28
5242 6551 6553 28
5243 6551 6554 28
5244 6551 6555 28
5245 6556 6557 28
5246 6556 6558 28
5247 6556 6559 28
5248 6556 6560 28
5249 6561 6562 28
5250 6561 6563 28
5251 6561 6564 28
5252 6561 6565 28
5253 6566 6567 28
5254 6566 6568 28
5255 6566 6569 28
5256 6566 6570 28
5257 6571 6572 28
5258 6571 6573 28
5259 6571 6574 28
5260 6571 6575 28
5261 6576 6577 28
5262 6576 6578 28
5263 6576 6579 28
5264 6576 6580 28
5265 6581 6582 28
5266 6581 6583 28
5267 6581 6584 28
5268 6581 6585 28
5269 6586 6587 28
5270 6586 6588 28
5271 6586 6589 28
5272 6586 6590 28
5273 6591 6592 28
5274 6591 6593 28
5275 6591 6594 28
5276 6591 6595 28
5277 6596 6597 28
5278 6596 6598 28
5279 6596 6599 28
5280 6596 6600 28
5281 6601 6602 28
5282 6601 6603 28
5283 6601 6604 28
5284 6601 6605 28
5285 6606 6607 28
5286 6606 6608 28
5287 6606 6609 28
5288 6606 6610 28
5289 6611 6612 28
5290 6611 6613 28
5291 6611 6614 28
5292 6611 6615 28
5293 6616 6617 28
5294 6616 6618 28
5295 6616 6619 28
5296 6616 6620 28
5297 6621 6622 28
5298 6621 6623 28
5299 6621 6624 28
5300 6621 6625 28
5301 6626 6627 28
5302 6626 6628 28
5303 6626 6629 28
5304 6626 6630 28
5305 6631 6632 28
5306 6631 6633 28
5307 6631 6634 28
5308 6631 6635 28
5309 6636 6637 28
5310 6636 6638 28
5311 6636 6639 28
5312 6636 6640 28
5313 6641 6642 28
5314 6641 6643 28
5315 6641 6644 28
5316 6641 6645 28
5317 6646 6647 28
5318 6646 6648 28
5319 6646 6649 28
5320 6646 6650 28
5321 6651 6652 28
5322 6651 6653 28
5323 6651 6654 28
5324 6651 6655 28
5325 6656 6657 28
5326 6656 6658 28
5327 6656 6659 28
5328 6656 6660 28
5329 6661 6662 28
5330 6661 6663 28
5331 6661 6664 28
5332 6661 6665 28
5333 6666 6667 28
5334 6666 6668 28
5335 6666 6669 28
5336 6666 6670 28
5337 6671 6672 28
5338 6671 6673 28
5339 6671 6674 28
5340 6671 6675 28
5341 6676 6677 28
5342 6676 6678 28
5343 6676 6679 28
5344 6676 6680 28
5345 6681 6682 28
5346 6681 6683 28
5347 6681 6684 28
5348 6681 6685 28
5349 6686 6687 28
5350 6686 6688 28
5351 6686 6689 28
5352 6686 6690 28
5353 6691 6692 28
5354 6691 6693 28
5355 6691 6694 28
5356 6691 6695 28
5357 6696 6697 28
5358 6696 6698 28
5359 6696 6699 28
5360 6696 6700 28
5361 6701 6702 28
5362 6701 6703 28
5363 6701 6704 28
5364 6701 6705 28
5365 6706 6707 28
5366 6706 6708 28
5367 6706 6709 28
5368 6706 6710 28
5369 6711 6712 28
5370 6711 6713 28
5371 6711 6714 28
5372 6711 6715 28
5373 6716 6717 28
5374 6716 6718 28
5375 6716 6719 28
5376 6716 6720 28
5377 6721 6722 28
5378 6721 6723 28
5379 6721 6724 28
5380 6721 6725 28
5381 6726 6727 28
5382 6726 6728 28
5383 6726 6729 28
5384 6726 6730 28
5385 6731 6732 28
5386 6731 6733 28
5387 6731 6734 28
5388 6731 6735 28
5389 6736 6737 28
5390 6736 6738 28
5391 6736 6739 28
5392 6736 6740 28
5393 6741 6742 28
5394 6741 6743 28
5395 6741 6744 28
5396 6741 6745 28
5397 6746 6747 28
5398 6746 6748 28
5399 6746 6749 28
5400 6746 6750 28
5401 6751 6752 28
5402 6751 6753 28
5403 6751 6754 28
5404 6751 6755 28
5405 6756 6757 28
5406 6756 6758 28
5407 6756 6759 28
5408 6756 6760 28
5409 6761 6762 28
5410 6761 6763 28
5411 6761 6764 28
5412 6761 6765 28
5413 6766 6767 28
5414 6766 6768 28
5415 6766 6769 28
5416 6766 6770 28
5417 6771 6772 28
5418 6771 6773 28
5419 6771 6774 28
5420 6771 6775 28
5421 6776 6777 28
5422 6776 6778 28
5423 6776 6779 28
5424 6776 6780 28
5425 6781 6782 28
5426 6781 6783 28
5427 6781 6784 28
5428 6781 6785 28
5429 6786 6787 28
5430 6786 6788 28
5431 6786 6789 28
5432 6786 6790 28
5433 6791 6792 28
5434 6791 6793 28
5435 6791 6794 28
5436 6791 6795 28
5437 6796 6797 28
5438 6796 6798 28
5439 6796 6799 28
5440 6796 6800 28
5441 6801 6802 28
5442 6801 6803 28
5443 6801 6804 28
5444 6801 6805 28
5445 6806 6807 28
5446 6806 6808 28
5447 6806 6809 28
5448 6806 6810 28
5449 6811 6812 28
5450 6811 6813 28
5451 6811 6814 28
5452 6811 6815 28
5453 6816 6817 28
5454 6816 6818 28
5455 6816 6819 28
5456 6816 6820 28
5457 6821 6822 28
5458 6821 6823 28
5459 6821 6824 28
5460 6821 6825 28
5461 6826 6827 28
5462 6826 6828 28
5463 6826 6829 28
5464 6826 6830 28
5465 6831 6832 28
5466 6831 6833 28
5467 6831 6834 28
5468 6831 6835 28
5469 6836 6837 28
5470 6836 6838 28
5471 6836 6839 28
5472 6836 6840 28
5473 6841 6842 28
5474 6841 6843 28
5475 6841 6844 28
5476 6841 6845 28
5477 6846 6847 28
5478 6846 6848 28
5479 6846 6849 28
5480 6846 6850 28
5481 6851 6852 28
5482 6851 6853 28
5483 6851 6854 28
5484 6851 6855 28
5485 6856 6857 28
5486 6856 6858 28
5487 6856 6859 28
5488 6856 6860 28
5489 6861 6862 28
5490 6861 6863 28
5491 6861 6864 28
5492 6861 6865 28
5493 6866 6867 28
5494 6866 6868 28
5495 6866 6869 28
5496 6866 6870 28
5497 6871 6872 28
5498 6871 6873 28
5499 6871 6874 28
5500 6871 6875 28
5501 6876 6877 28
5502 6876 6878 28
5503 6876 6879 28
5504 6876 6880 28
5505 6881 6882 28
5506 6881 6883 28
5507 6881 6884 28
5508 6881 6885 28
5509 6886 6887 28
5510 6886 6888 28
5511 6886 6889 28
5512 6886 6890 28
5513 6891 6892 28
5514 6891 6893 28
5515 6891 6894 28
5516 6891 6895 28
5517 6896 6897 28
5518 6896 6898 28
5519 6896 6899 28
5520 6896 6900 28
5521 6901 6902 28
5522 6901 6903 28
5523 6901 6904 28
5524 6901 6905 28
5525 6906 6907 28
5526 6906 6908 28
5527 6906 6909 28
5528 6906 6910 28
5529 6911 6912 28
5530 6911 6913 28
5531 6911 6914 28
5532 6911 6915 28
5533 6916 6917 28
5534 6916 6918 28
5535 6916 6919 28
5536 6916 6920 28
5537 6921 6922 28
5538 6921 6923 28
5539 6921 6924 28
5540 6921 6925 28
5541 6926 6927 28
5542 6926 6928 28
5543 6926 6929 28
5544 6926 6930 28
5545 6931 6932 28
5546 6931 6933 28
5547 6931 6934 28
5548 6931 6935 28
5549 6936 6937 28
5550 6936 6938 28
5551 6936 6939 28
5552 6936 6940 28
5553 6941 6942 28
5554 6941 6943 28
5555 6941 6944 28
5556 6941 6945 28
5557 6946 6947 28
5558 6946 6948 28
5559 6946 6949 28
5560 6946 6950 28
5561 6951 6952 28
5562 6951 6953 28
5563 6951 6954 28
5564 6951 6955 28
5565 6956 6957 28
5566 6956 6958 28
5567 6956 6959 28
5568 6956 6960 28
5569 6961 6962 28
5570 6961 6963 28
5571 6961 6964 28
5572 6961 6965 28
5573 6966 6967 28
5574 6966 6968 28
5575 6966 6969 28
5576 6966 6970 28
5577 6971 6972 28
5578 6971 6973 28
5579 6971 6974 28
5580 6971 6975 28
5581 6976 6977 28
5582 6976 6978 28
5583 6976 6979 28
5584 6976 6980 28
5585 6981 6982 28
5586 6981 6983 28
5587 6981 6984 28
5588 6981 6985 28
5589 6986 6987 28
5590 6986 6988 28
5591 6986 6989 28
5592 6986 6990 28
5593 6991 6992 28
5594 6991 6993 28
5595 6991 6994 28
5596 6991 6995 28
5597 6996 6997 28
5598 6996 6998 28
5599 6996 6999 28
5600 6996 7000 28
5601 7001 7002 28
5602 7001 7003 28
5603 7001 7004 28
5604 7001 7005 28
5605 7006 7007 28
5606 7006 7008 28
5607 7006 7009 28
5608 7006 7010 28
5609 7011 7012 28
5610 7011 7013 28
5611 7011 7014 28
5612 7011 7015 28
5613 7016 7017 28
5614 7016 7018 28
5615 7016 7019 28
5616 7016 7020 28
5617 7021 7022 28
5618 7021 7023 28
5619 7021 7024 28
5620 7021 7025 28
5621 7026 7027 28
5622 7026 7028 28
5623 7026 7029 28
5624 7026 7030 28
5625 7031 7032 28
5626 7031 7033 28
5627 7031 7034 28
5628 7031 7035 28
5629 7036 7037 28
5630 7036 7038 28
5631 7036 7039 28
5632 7036 7040 28
5633 7041 7042 28
5634 7041 7043 28
5635 7041 7044 28
5636 7041 7045 28
5637 7046 7047 28
5638 7046 7048 28
5639 7046 7049 28
5640 7046 7050 28
5641 7051 7052 28
5642 7051 7053 28
5643 7051 7054 28
5644 7051 7055 28
5645 7056 7057 28
5646 7056 7058 28
5647 7056 7059 28
5648 7056 7060 28
5649 7061 7062 28
5650 7061 7063 28
5651 7061 7064 28
5652 7061 7065 28
5653 7066 7067 28
5654 7066 7068 28
5655 7066 7069 28
5656 7066 7070 28
5657 7071 7072 28
5658 7071 7073 28
5659 7071 7074 28
5660 7071 7075 28
5661 7076 7077 28
5662 7076 7078 28
5663 7076 7079 28
5664 7076 7080 28
5665 7081 7082 28
5666 7081 7083 28
5667 7081 7084 28
5668 7081 7085 28
5669 7086 7087 28
5670 7086 7088 28
5671 7086 7089 28
5672 7086 7090 28
5673 7091 7092 28
5674 7091 7093 28
5675 7091 7094 28
5676 7091 7095 28
5677 7096 7097 28
5678 7096 7098 28
5679 7096 7099 28
5680 7096 7100 28
5681 7101 7102 28
5682 7101 7103 28
5683 7101 7104 28
5684 7101 7105 28
5685 7106 7107 28
5686 7106 7108 28
5687 7106 7109 28
5688 7106 7110 28
5689 7111 7112 28
5690 7111 7113 28
5691 7111 7114 28
5692 7111 7115 28
5693 7116 7117 28
5694 7116 7118 28
5695 7116 7119 28
5696 7116 7120 28
5697 7121 7122 28
5698 7121 7123 28
5699 7121 7124 28
5700 7121 7125 28
5701 7126 7127 28
5702 7126 7128 28
5703 7126 7129 28
5704 7126 7130 28
5705 7131 7132 28
5706 7131 7133 28
5707 7131 7134 28
5708 7131 7135 28
5709 7136 7137 28
5710 7136 7138 28
5711 7136 7139 28
5712 7136 7140 28
5713 7141 7142 28
5714 7141 7143 28
5715 7141 7144 28
5716 7141 7145 28
5717 7146 7147 28
5718 7146 7148 28
5719 7146 7149 28
5720 7146 7150 28
5721 7151 7152 28
5722 7151 7153 28
5723 7151 7154 28
5724 7151 7155 28
5725 7156 7157 28
5726 7156 7158 28
5727 7156 7159 28
5728 7156 7160 28
5729 7161 7162 28
5730 7161 7163 28
5731 7161 7164 28
5732 7161 7165 28
5733 7166 7167 28
5734 7166 7168 28
5735 7166 7169 28
5736 7166 7170 28
5737 7171 7172 28
5738 7171 7173 28
5739 7171 7174 28
5740 7171 7175 28
5741 7176 7177 28
5742 7176 7178 28
5743 7176 7179 28
5744 7176 7180 28
5745 7181 7182 28
5746 7181 7183 28
5747 7181 7184 28
5748 7181 7185 28
5749 7186 7187 28
5750 7186 7188 28
5751 7186 7189 28
5752 7186 7190 28
5753 7191 7192 28
5754 7191 7193 28
5755 7191 7194 28
5756 7191 7195 28
5757 7196 7197 28
5758 7196 7198 28
5759 7196 7199 28
5760 7196 7200 28
5761 7201 7202 28
5762 7201 7203 28
5763 7201 7204 28
5764 7201 7205 28
5765 7206 7207 28
5766 7206 7208 28
5767 7206 7209 28
5768 7206 7210 28
5769 7211 7212 28
5770 7211 7213 28
5771 7211 7214 28
5772 7211 7215 28
5773 7216 7217 28
5774 7216 7218 28
5775 7216 7219 28
5776 7216 7220 28
5777 7221 7222 28
5778 7221 7223 28
5779 7221 7224 28
5780 7221 7225 28
5781 7226 7227 28
5782 7226 7228 28
5783 7226 7229 28
5784 7226 7230 28
5785 7231 7232 28
5786 7231 7233 28
5787 7231 7234 28
5788 7231 7235 28
5789 7236 7237 28
5790 7236 7238 28
5791 7236 7239 28
5792 7236 7240 28
5793 7241 7242 28
5794 7241 7243 28
5795 7241 7244 28
5796 7241 7245 28
5797 7246 7247 28
5798 7246 7248 28
5799 7246 7249 28
5800 7246 7250 28
5801 7251 7252 28
5802 7251 7253 28
5803 7251 7254 28
5804 7251 7255 28
5805 7256 7257 28
5806 7256 7258 28
5807 7256 7259 28
5808 7256 7260 28
5809 7261 7262 28
5810 7261 7263 28
5811 7261 7264 28
5812 7261 7265 28
5813 7266 7267 28
5814 7266 7268 28
5815 7266 7269 28
5816 7266 7270 28
5817 7271 7272 28
5818 7271 7273 28
5819 7271 7274 28
5820 7271 7275 28
5821 7276 7277 28
5822 7276 7278 28
5823 7276 7279 28
5824 7276 7280 28
5825 7281 7282 28
5826 7281 7283 28
5827 7281 7284 28
5828 7281 7285 28
5829 7286 7287 28
5830 7286 7288 28
5831 7286 7289 28
5832 7286 7290 28
5833 7291 7292 28
5834 7291 7293 28
5835 7291 7294 28
5836 7291 7295 28
5837 7296 7297 28
5838 7296 7298 28
5839 7296 7299 28
5840 7296 7300 28
5841 7301 7302 28
5842 7301 7303 28
5843 7301 7304 28
5844 7301 7305 28
5845 7306 7307 28
5846 7306 7308 28
5847 7306 7309 28
5848 7306 7310 28
5849 7311 7312 28
5850 7311 7313 28
5851 7311 7314 28
5852 7311 7315 28
5853 7316 7317 28
5854 7316 7318 28
5855 7316 7319 28
5856 7316 7320 28
5857 7321 7322 28
5858 7321 7323 28
5859 7321 7324 28
5860 7321 7325 28
5861 7326 7327 28
5862 7326 7328 28
5863 7326 7329 28
5864 7326 7330 28
5865 7331 7332 28
5866 7331 7333 28
5867 7331 7334 28
5868 7331 7335 28
5869 7336 7337 28
5870 7336 7338 28
5871 7336 7339 28
5872 7336 7340 28
5873 7341 7342 28
5874 7341 7343 28
5875 7341 7344 28
5876 7341 7345 28
5877 7346 7347 28
5878 7346 7348 28
5879 7346 7349 28
5880 7346 7350 28
5881 7351 7352 28
5882 7351 7353 28
5883 7351 7354 28
5884 7351 7355 28
5885 7356 7357 28
5886 7356 7358 28
5887 7356 7359 28
5888 7356 7360 28
5889 7361 7362 28
5890 7361 7363 28
5891 7361 7364 28
5892 7361 7365 28
5893 7366 7367 28
5894 7366 7368 28
5895 7366 7369 28
5896 7366 7370 28
5897 7371 7372 28
5898 7371 7373 28
5899 7371 7374 28
5900 7371 7375 28
5901 7376 7377 28
5902 7376 7378 28
5903 7376 7379 28
5904 7376 7380 28
5905 7381 7382 28
5906 7381 7383 28
5907 7381 7384 28
5908 7381 7385 28
5909 7386 7387 28
5910 7386 7388 28
5911 7386 7389 28
5912 7386 7390 28
5913 7391 7392 28
5914 7391 7393 28
5915 7391 7394 28
5916 7391 7395 28
5917 7396 7397 28
5918 7396 7398 28
5919 7396 7399 28
5920 7396 7400 28
5921 7401 7402 28
5922 7401 7403 28
5923 7401 7404 28
5924 7401 7405 28
5925 7406 7407 28
5926 7406 7408 28
5927 7406 7409 28
5928 7406 7410 28
5929 7411 7412 28
5930 7411 7413 28
5931 7411 7414 28
5932 7411 7415 28
5933 7416 7417 28
5934 7416 7418 28
5935 7416 7419 28
5936 7416 7420 28
5937 7421 7422 28
5938 7421 7423 28
5939 7421 7424 28
5940 7421 7425 28
5941 7426 7427 28
5942 7426 7428 28
5943 7426 7429 28
5944 7426 7430 28
5945 7431 7432 28
5946 7431 7433 28
5947 7431 7434 28
5948 7431 7435 28
5949 7436 7437 28
5950 7436 7438 28
5951 7436 7439 28
5952 7436 7440 28
5953 7441 7442 28
5954 7441 7443 28
5955 7441 7444 28
5956 7441 7445 28
5957 7446 7447 28
5958 7446 7448 28
5959 7446 7449 28
5960 7446 7450 28
5961 7451 7452 28
5962 7451 7453 28
5963 7451 7454 28
5964 7451 7455 28
5965 7456 7457 28
5966 7456 7458 28
5967 7456 7459 28
5968 7456 7460 28
5969 7461 7462 28
5970 7461 7463 28
5971 7461 7464 28
5972 7461 7465 28
5973 7466 7467 28
5974 7466 7468 28
5975 7466 7469 28
5976 7466 7470 28
5977 7471 7472 28
5978 7471 7473 28
5979 7471 7474 28
5980 7471 7475 28
5981 7476 7477 28
5982 7476 7478 28
5983 7476 7479 28
5984 7476 7480 28
5985 7481 7482 28
5986 7481 7483 28
5987 7481 7484 28
5988 7481 7485 28
5989 7486 7487 28
5990 7486 7488 28
5991 7486 7489 28
5992 7486 7490 28
5993 7491 7492 28
5994 7491 7493 28
5995 7491 7494 28
5996 7491 7495 28
5997 7496 7497 28
5998 7496 7498 28
5999 7496 7499 28
6000 7496 7500 28
6001 7501 7502 28
6002 7501 7503 28
6003 7501 7504 28
6004 7501 7505 28
6005 7506 7507 28
6006 7506 7508 28
6007 7506 7509 28
6008 7506 7510 28
6009 7511 7512 28
6010 7511 7513 28
6011 7511 7514 28
6012 7511 7515 28
6013 7516 7517 28
6014 7516 7518 28
6015 7516 7519 28
6016 7516 7520 28
6017 7521 7522 28
6018 7521 7523 28
6019 7521 7524 28
6020 7521 7525 28
6021 7526 7527 28
6022 7526 7528 28
6023 7526 7529 28
6024 7526 7530 28
6025 7531 7532 28
6026 7531 7533 28
6027 7531 7534 28
6028 7531 7535 28
6029 7536 7537 28
6030 7536 7538 28
6031 7536 7539 28
6032 7536 7540 28
6033 7541 7542 28
6034 7541 7543 28
6035 7541 7544 28
6036 7541 7545 28
6037 7546 7547 28
6038 7546 7548 28
6039 7546 7549 28
6040 7546 7550 28
6041 7551 7552 28
6042 7551 7553 28
6043 7551 7554 28
6044 7551 7555 28
6045 7556 7557 28
6046 7556 7558 28
6047 7556 7559 28
6048 7556 7560 28
6049 7561 7562 28
6050 7561 7563 28
6051 7561 7564 28
6052 7561 7565 28
6053 7566 7567 28
6054 7566 7568 28
6055 7566 7569 28
6056 7566 7570 28
6057 7571 7572 28
6058 7571 7573 28
6059 7571 7574 28
6060 7571 7575 28
6061 7576 7577 28
6062 7576 7578 28
6063 7576 7579 28
6064 7576 7580 28
6065 7581 7582 28
6066 7581 7583 28
6067 7581 7584 28
6068 7581 7585 28
6069 7586 7587 28
6070 7586 7588 28
6071 7586 7589 28
6072 7586 7590 28
6073 7591 7592 28
6074 7591 7593 28
6075 7591 7594 28
6076 7591 7595 28
6077 7596 7597 28
6078 7596 7598 28
6079 7596 7599 28
6080 7596 7600 28
6081 7601 7602 28
6082 7601 7603 28
6083 7601 7604 28
6084 7601 7605 28
6085 7606 7607 28
6086 7606 7608 28
6087 7606 7609 28
6088 7606 7610 28
6089 7611 7612 28
6090 7611 7613 28
6091 7611 7614 28
6092 7611 7615 28
6093 7616 7617 28
6094 7616 7618 28
6095 7616 7619 28
6096 7616 7620 28
6097 7621 7622 28
6098 7621 7623 28
6099 7621 7624 28
6100 7621 7625 28
6101 7626 7627 28
6102 7626 7628 28
6103 7626 7629 28
6104 7626 7630 28
6105 7631 7632 28
6106 7631 7633 28
6107 7631 7634 28
6108 7631 7635 28
6109 7636 7637 28
6110 7636 7638 28
6111 7636 7639 28
6112 7636 7640 28
6113 7641 7642 28
6114 7641 7643 28
6115 7641 7644 28
6116 7641 7645 28
6117 7646 7647 28
6118 7646 7648 28
6119 7646 7649 28
6120 7646 7650 28
6121 7651 7652 28
6122 7651 7653 28
6123 7651 7654 28
6124 7651 7655 28
6125 7656 7657 28
6126 7656 7658 28
6127 7656 7659 28
6128 7656 7660 28
6129 7661 7662 28
6130 7661 7663 28
6131 7661 7664 28
6132 7661 7665 28
6133 7666 7667 28
6134 7666 7668 28
6135 7666 7669 28
6136 7666 7670 28
6137 7671 7672 28
6138 7671 7673 28
6139 7671 7674 28
6140 7671 7675 28
6141 7676 7677 28
6142 7676 7678 28
6143 7676 7679 28
6144 7676 7680 28
6145 7681 7682 28
6146 7681 7683 28
6147 7681 7684 28
6148 7681 7685 28
6149 7686 7687 28
6150 7686 7688 28
6151 7686 7689 28
6152 7686 7690 28
6153 7691 7692 28
6154 7691 7693 28
6155 7691 7694 28
6156 7691 7695 28
6157 7696 7697 28
6158 7696 7698 28
6159 7696 7699 28
6160 7696 7700 28
6161 7701 7702 28
6162 7701 7703 28
6163 7701 7704 28
6164 7701 7705 28
6165 7706 7707 28
6166 7706 7708 28
6167 7706 7709 28
6168 7706 7710 28
6169 7711 7712 28
6170 7711 7713 28
6171 7711 7714 28
6172 7711 7715 28
6173 7716 7717 28
6174 7716 7718 28
6175 7716 7719 28
6176 7716 7720 28
6177 7721 7722 28
6178 7721 7723 28
6179 7721 7724 28
6180 7721 7725 28
6181 7726 7727 28
6182 7726 7728 28
6183 7726 7729 28
6184 7726 7730 28
6185 7731 7732 28
6186 7731 7733 28
6187 7731 7734 28
6188 7731 7735 28
6189 7736 7737 28
6190 7736 7738 28
6191 7736 7739 28
6192 7736 7740 28
6193 7741 7742 28
6194 7741 7743 28
6195 7741 7744 28
6196 7741 7745 28
6197 7746 7747 28
6198 7746 7748 28
6199 7746 7749 28
6200 7746 7750 28
6201 7751 7752 28
6202 7751 7753 28
6203 7751 7754 28
6204 7751 7755 28
6205 7756 7757 28
6206 7756 7758 28
6207 7756 7759 28
6208 7756 7760 28
6209 7761 7762 28
6210 7761 7763 28
6211 7761 7764 28
6212 7761 7765 28
6213 7766 7767 28
6214 7766 7768 28
6215 7766 7769 28
6216 7766 7770 28
6217 7771 7772 28
6218 7771 7773 28
6219 7771 7774 28
6220 7771 7775 28
6221 7776 7777 28
6222 7776 7778 28
6223 7776 7779 28
6224 7776 7780 28
6225 7781 7782 28
6226 7781 7783 28
6227 7781 7784 28
6228 7781 7785 28
6229 7786 7787 28
6230 7786 7788 28
6231 7786 7789 28
6232 7786 7790 28
6233 7791 7792 28
6234 7791 7793 28
6235 7791 7794 28
6236 7791 7795 28
6237 7796 7797 28
6238 7796 7798 28
6239 7796 7799 28
6240 7796 7800 28
6241 7801 7802 28
6242 7801 7803 28
6243 7801 7804 28
6244 7801 7805 28
6245 7806 7807 28
6246 7806 7808 28
6247 7806 7809 28
6248 7806 7810 28
6249 7811 7812 28
6250 7811 7813 28
6251 7811 7814 28
6252 7811 7815 28
6253 7816 7817 28
6254 7816 7818 28
6255 7816 7819 28
6256 7816 7820 28
6257 7821 7822 28
6258 7821 7823 28
6259 7821 7824 28
6260 7821 7825 28
6261 7826 7827 28
6262 7826 7828 28
6263 7826 7829 28
6264 7826 7830 28
6265 7831 7832 28
6266 7831 7833 28
6267 7831 7834 28
6268 7831 7835 28
6269 7836 7837 28
6270 7836 7838 28
6271 7836 7839 28
6272 7836 7840 28
6273 7841 7842 28
6274 7841 7843 28
6275 7841 7844 28
6276 7841 7845 28
6277 7846 7847 28
6278 7846 7848 28
6279 7846 7849 28
6280 7846 7850 28
6281 7851 7852 28
6282 7851 7853 28
6283 7851 7854 28
6284 7851 7855 28
6285 7856 7857 28
6286 7856 7858 28
6287 7856 7859 28
6288 7856 7860 28
6289 7861 7862 28
6290 7861 7863 28
6291 7861 7864 28
6292 7861 7865 28
6293 7866 7867 28
6294 7866 7868 28
6295 7866 7869 28
6296 7866 7870 28
6297 7871 7872 28
6298 7871 7873 28
6299 7871 7874 28
6300 7871 7875 28
6301 7876 7877 28
6302 7876 7878 28
6303 7876 7879 28
6304 7876 7880 28
6305 7881 7882 28
6306 7881 7883 28
6307 7881 7884 28
6308 7881 7885 28
6309 7886 7887 28
6310 7886 7888 28
6311 7886 7889 28
6312 7886 7890 28
6313 7891 7892 28
6314 7891 7893 28
6315 7891 7894 28
6316 7891 7895 28
6317 7896 7897 28
6318 7896 7898 28
6319 7896 7899 28
6320 7896 7900 28
6321 7901 7902 28
6322 7901 7903 28
6323 7901 7904 28
6324 7901 7905 28
6325 7906 7907 28
6326 7906 7908 28
6327 7906 7909 28
6328 7906 7910 28
6329 7911 7912 28
6330 7911 7913 28
6331 7911 7914 28
6332 7911 7915 28
6333 7916 7917 28
6334 7916 7918 28
6335 7916 7919 28
6336 7916 7920 28
6337 7921 7922 28
6338 7921 7923 28
6339 7921 7924 28
6340 7921 7925 28
6341 7926 7927 28
6342 7926 7928 28
6343 7926 7929 28
6344 7926 7930 28
6345 7931 7932 28
6346 7931 7933 28
6347 7931 7934 28
6348 7931 7935 28
6349 7936 7937 28
6350 7936 7938 28
6351 7936 7939 28
6352 7936 7940 28
6353 7941 7942 28
6354 7941 7943 28
6355 7941 7944 28
6356 7941 7945 28
6357 7946 7947 28
6358 7946 7948 28
6359 7946 7949 28
6360 7946 7950 28
6361 7951 7952 28
6362 7951 7953 28
6363 7951 7954 28
6364 7951 7955 28
6365 7956 7957 28
6366 7956 7958 28
6367 7956 7959 28
6368 7956 7960 28
6369 7961 7962 28
6370 7961 7963 28
6371 7961 7964 28
6372 7961 7965 28
6373 7966 7967 28
6374 7966 7968 28
6375 7966 7969 28
6376 7966 7970 28
6377 7971 7972 28
6378 7971 7973 28
6379 7971 7974 28
6380 7971 7975 28
6381 7976 7977 28
6382 7976 7978 28
6383 7976 7979 28
6384 7976 7980 28
6385 7981 7982 28
6386 7981 7983 28
6387 7981 7984 28
6388 7981 7985 28
6389 7986 7987 28
6390 7986 7988 28
6391 7986 7989 28
6392 7986 7990 28
6393 7991 7992 28
6394 7991 7993 28
6395 7991 7994 28
6396 7991 7995 28
6397 7996 7997 28
6398 7996 7998 28
6399 7996 7999 28
6400 7996 8000 28
6401 8001 8002 28
6402 8001 8003 28
6403 8001 8004 28
6404 8001 8005 28
6405 8006 8007 28
6406 8006 8008 28
6407 8006 8009 28
6408 8006 8010 28
6409 8011 8012 28
6410 8011 8013 28
6411 8011 8014 28
6412 8011 8015 28
6413 8016 8017 28
6414 8016 8018 28
6415 8016 8019 28
6416 8016 8020 28
6417 8021 8022 28
6418 8021 8023 28
6419 8021 8024 28
6420 8021 8025 28
6421 8026 8027 28
6422 8026 8028 28
6423 8026 8029 28
6424 8026 8030 28
6425 8031 8032 28
6426 8031 8033 28
6427 8031 8034 28
6428 8031 8035 28
6429 8036 8037 28
6430 8036 8038 28
6431 8036 8039 28
6432 8036 8040 28
6433 8041 8042 28
6434 8041 8043 28
6435 8041 8044 28
6436 8041 8045 28
6437 8046 8047 28
6438 8046 8048 28
6439 8046 8049 28
6440 8046 8050 28
6441 8051 8052 28
6442 8051 8053 28
6443 8051 8054 28
6444 8051 8055 28
6445 8056 8057 28
6446 8056 8058 28
6447 8056 8059 28
6448 8056 8060 28
6449 8061 8062 28
6450 8061 8063 28
6451 8061 8064 28
6452 8061 8065 28
6453 8066 8067 28
6454 8066 8068 28
6455 8066 8069 28
6456 8066 8070 28
6457 8071 8072 28
6458 8071 8073 28
6459 8071 8074 28
6460 8071 8075 28
6461 8076 8077 28
6462 8076 8078 28
6463 8076 8079 28
6464 8076 8080 28
6465 8081 8082 28
6466 8081 8083 28
6467 8081 8084 28
6468 8081 8085 28
6469 8086 8087 28
6470 8086 8088 28
6471 8086 8089 28
6472 8086 8090 28
6473 8091 8092 28
6474 8091 8093 28
6475 8091 8094 28
6476 8091 8095 28
6477 8096 8097 28
6478 8096 8098 28
6479 8096 8099 28
6480 8096 8100 28
6481 8101 8102 28
6482 8101 8103 28
6483 8101 8104 28
6484 8101 8105 28
6485 8106 8107 28
6486 8106 8108 28
6487 8106 8109 28
6488 8106 8110 28
6489 8111 8112 28
6490 8111 8113 28
6491 8111 8114 28
6492 8111 8115 28
6493 8116 8117 28
6494 8116 8118 28
6495 8116 8119 28
6496 8116 8120 28
6497 8121 8122 28
6498 8121 8123 28
6499 8121 8124 28
6500 8121 8125 28
6501 8126 8127 28
6502 8126 8128 28
6503 8126 8129 28
6504 8126 8130 28
6505 8131 8132 28
6506 8131 8133 28
6507 8131 8134 28
6508 8131 8135 28
6509 8136 8137 28
6510 8136 8138 28
6511 8136 8139 28
6512 8136 8140 28
6513 8141 8142 28
6514 8141 8143 28
6515 8141 8144 28
6516 8141 8145 28
6517 8146 8147 28
6518 8146 8148 28
6519 8146 8149 28
6520 8146 8150 28
6521 8151 8152 28
6522 8151 8153 28
6523 8151 8154 28
6524 8151 8155 28
6525 8156 8157 28
6526 8156 8158 28
6527 8156 8159 28
6528 8156 8160 28
6529 8161 8162 28
6530 8161 8163 28
6531 8161 8164 28
6532 8161 8165 28
6533 8166 8167 28
6534 8166 8168 28
6535 8166 8169 28
6536 8166 8170 28
6537 8171 8172 28
6538 8171 8173 28
6539 8171 8174 28
6540 8171 8175 28
6541 8176 8177 28
6542 8176 8178 28
6543 8176 8179 28
6544 8176 8180 28
6545 8181 8182 28
6546 8181 8183 28
6547 8181 8184 28
6548 8181 8185 28
6549 8186 8187 28
6550 8186 8188 28
6551 8186 8189 28
6552 8186 8190 28
6553 8191 8192 28
6554 8191 8193 28
6555 8191 8194 28
6556 8191 8195 28
6557 8196 8197 28
6558 8196 8198 28
6559 8196 8199 28
6560 8196 8200 28
6561 8201 8202 28
6562 8201 8203 28
6563 8201 8204 28
6564 8201 8205 28
6565 8206 8207 28
6566 8206 8208 28
6567 8206 8209 28
6568 8206 8210 28
6569 8211 8212 28
6570 8211 8213 28
6571 8211 8214 28
6572 8211 8215 28
6573 8216 8217 28
6574 8216 8218 28
6575 8216 8219 28
6576 8216 8220 28
6577 8221 8222 28
6578 8221 8223 28
6579 8221 8224 28
6580 8221 8225 28
6581 8226 8227 28
6582 8226 8228 28
6583 8226 8229 28
6584 8226 8230 28
6585 8231 8232 28
6586 8231 8233 28
6587 8231 8234 28
6588 8231 8235 28
6589 8236 8237 28
6590 8236 8238 28
6591 8236 8239 28
6592 8236 8240 28
6593 8241 8242 28
6594 8241 8243 28
6595 8241 8244 28
6596 8241 8245 28
6597 8246 8247 28
6598 8246 8248 28
6599 8246 8249 28
6600 8246 8250 28
6601 8251 8252 28
6602 8251 8253 28
6603 8251 8254 28
6604 8251 8255 28
6605 8256 8257 28
6606 8256 8258 28
6607 8256 8259 28
6608 8256 8260 28
6609 8261 8262 28
6610 8261 8263 28
6611 8261 8264 28
6612 8261 8265 28
6613 8266 8267 28
6614 8266 8268 28
6615 8266 8269 28
6616 8266 8270 28
6617 8271 8272 28
6618 8271 8273 28
6619 8271 8274 28
6620 8271 8275 28
6621 8276 8277 28
6622 8276 8278 28
6623 8276 8279 28
6624 8276 8280 28
6625 8281 8282 28
6626 8281 8283 28
6627 8281 8284 28
6628 8281 8285 28
6629 8286 8287 28
6630 8286 8288 28
6631 8286 8289 28
6632 8286 8290 28
6633 8291 8292 28
6634 8291 8293 28
6635 8291 8294 28
6636 8291 8295 28
6637 8296 8297 28
6638 8296 8298 28
6639 8296 8299 28
6640 8296 8300 28
6641 8301 8302 28
6642 8301 8303 28
6643 8301 8304 28
6644 8301 8305 28
6645 8306 8307 28
6646 8306 8308 28
6647 8306 8309 28
6648 8306 8310 28
6649 8311 8312 28
6650 8311 8313 28
6651 8311 8314 28
6652 8311 8315 28
6653 8316 8317 28
6654 8316 8318 28
6655 8316 8319 28
6656 8316 8320 28
6657 8321 8322 28
6658 8321 8323 28
6659 8321 8324 28
6660 8321 8325 28
6661 8326 8327 28
6662 8326 8328 28
6663 8326 8329 28
6664 8326 8330 28
6665 8331 8332 28
6666 8331 8333 28
6667 8331 8334 28
6668 8331 8335 28
6669 8336 8337 28
6670 8336 8338 28
6671 8336 8339 28
6672 8336 8340 28
6673 8341 8342 28
6674 8341 8343 28
6675 8341 8344 28
6676 8341 8345 28
6677 8346 8347 28
6678 8346 8348 28
6679 8346 8349 28
6680 8346 8350 28
6681 8351 8352 28
6682 8351 8353 28
6683 8351 8354 28
6684 8351 8355 28
6685 8356 8357 28
6686 8356 8358 28
6687 8356 8359 28
6688 8356 8360 28
6689 8361 8362 28
6690 8361 8363 28
6691 8361 8364 28
6692 8361 8365 28
6693 8366 8367 28
6694 8366 8368 28
6695 8366 8369 28
6696 8366 8370 28
6697 8371 8372 28
6698 8371 8373 28
6699 8371 8374 28
6700 8371 8375 28
6701 8376 8377 28
6702 8376 8378 28
6703 8376 8379 28
6704 8376 8380 28
6705 8381 8382 28
6706 8381 8383 28
6707 8381 8384 28
6708 8381 8385 28
6709 8386 8387 28
6710 8386 8388 28
6711 8386 8389 28
6712 8386 8390 28
6713 8391 8392 28
6714 8391 8393 28
6715 8391 8394 28
6716 8391 8395 28
6717 8396 8397 28
6718 8396 8398 28
6719 8396 8399 28
6720 8396 8400 28
6721 8401 8402 28
6722 8401 8403 28
6723 8401 8404 28
6724 8401 8405 28
6725 8406 8407 28
6726 8406 8408 28
6727 8406 8409 28
6728 8406 8410 28
6729 8411 8412 28
6730 8411 8413 28
6731 8411 8414 28
6732 8411 8415 28
6733 8416 8417 28
6734 8416 8418 28
6735 8416 8419 28
6736 8416 8420 28
6737 8421 8422 28
6738 8421 8423 28
6739 8421 8424 28
6740 8421 8425 28
6741 8426 8427 28
6742 8426 8428 28
6743 8426 8429 28
6744 8426 8430 28
6745 8431 8432 28
6746 8431 8433 28
6747 8431 8434 28
6748 8431 8435 28
6749 8436 8437 28
6750 8436 8438 28
6751 8436 8439 28
6752 8436 8440 28
6753 8441 8442 28
6754 8441 8443 28
6755 8441 8444 28
6756 8441 8445 28
6757 8446 8447 28
6758 8446 8448 28
6759 8446 8449 28
6760 8446 8450 28
6761 8451 8452 28
6762 8451 8453 28
6763 8451 8454 28
6764 8451 8455 28
6765 8456 8457 28
6766 8456 8458 28
6767 8456 8459 28
6768 8456 8460 28
6769 8461 8462 28
6770 8461 8463 28
6771 8461 8464 28
6772 8461 8465 28
6773 8466 8467 28
6774 8466 8468 28
6775 8466 8469 28
6776 8466 8470 28
6777 8471 8472 28
6778 8471 8473 28
6779 8471 8474 28
6780 8471 8475 28
6781 8476 8477 28
6782 8476 8478 28
6783 8476 8479 28
6784 8476 8480 28
6785 8481 8482 28
6786 8481 8483 28
6787 8481 8484 28
6788 8481 8485 28
6789 8486 8487 28
6790 8486 8488 28
6791 8486 8489 28
6792 8486 8490 28
6793 8491 8492 28
6794 8491 8493 28
6795 8491 8494 28
6796 8491 8495 28
6797 8496 8497 28
6798 8496 8498 28
6799 8496 8499 28
6800 8496 8500 28
6801 8501 8502 28
6802 8501 8503 28
6803 8501 8504 28
6804 8501 8505 28
6805 8506 8507 28
6806 8506 8508 28
6807 8506 8509 28
6808 8506 8510 28
6809 8511 8512 28
6810 8511 8513 28
6811 8511 8514 28
6812 8511 8515 28
6813 8516 8517 28
6814 8516 8518 28
6815 8516 8519 28
6816 8516 8520 28
6817 8521 8522 28
6818 8521 8523 28
6819 8521 8524 28
6820 8521 8525 28
6821 8526 8527 28
6822 8526 8528 28
6823 8526 8529 28
6824 8526 8530 28
6825 8531 8532 28
6826 8531 8533 28
6827 8531 8534 28
6828 8531 8535 28
6829 8536 8537 28
6830 8536 8538 28
6831 8536 8539 28
6832 8536 8540 28
6833 8541 8542 28
6834 8541 8543 28
6835 8541 8544 28
6836 8541 8545 28
6837 8546 8547 28
6838 8546 8548 28
6839 8546 8549 28
6840 8546 8550 28
6841 8551 8552 28
6842 8551 8553 28
6843 8551 8554 28
6844 8551 8555 28
6845 8556 8557 28
6846 8556 8558 28
6847 8556 8559 28
6848 8556 8560 28
6849 8561 8562 28
6850 8561 8563 28
6851 8561 8564 28
6852 8561 8565 28
6853 8566 8567 28
6854 8566 8568 28
6855 8566 8569 28
6856 8566 8570 28
6857 8571 8572 28
6858 8571 8573 28
6859 8571 8574 28
6860 8571 8575 28
6861 8576 8577 28
6862 8576 8578 28
6863 8576 8579 28
6864 8576 8580 28
6865 8581 8582 28
6866 8581 8583 28
6867 8581 8584 28
6868 8581 8585 28
6869 8586 8587 28
6870 8586 8588 28
6871 8586 8589 28
6872 8586 8590 28
6873 8591 8592 28
6874 8591 8593 28
6875 8591 8594 28
6876 8591 8595 28
6877 8596 8597 28
6878 8596 8598 28
6879 8596 8599 28
6880 8596 8600 28
6881 8601 8602 28
6882 8601 8603 28
6883 8601 8604 28
6884 8601 8605 28
6885 8606 8607 28
6886 8606 8608 28
6887 8606 8609 28
6888 8606 8610 28
6889 8611 8612 28
6890 8611 8613 28
6891 8611 8614 28
6892 8611 8615 28
6893 8616 8617 28
6894 8616 8618 28
6895 8616 8619 28
6896 8616 8620 28
6897 8621 8622 28
6898 8621 8623 28
6899 8621 8624 28
6900 8621 8625 28
6901 8626 8627 28
6902 8626 8628 28
6903 8626 8629 28
6904 8626 8630 28
6905 8631 8632 28
6906 8631 8633 28
6907 8631 8634 28
6908 8631 8635 28
6909 8636 8637 28
6910 8636 8638 28
6911 8636 8639 28
6912 8636 8640 28
6913 8641 8642 28
6914 8641 8643 28
6915 8641 8644 28
6916 8641 8645 28
6917 8646 8647 28
6918 8646 8648 28
6919 8646 8649 28
6920 8646 8650 28
6921 8651 8652 28
6922 8651 8653 28
6923 8651 8654 28
6924 8651 8655 28
6925 8656 8657 28
6926 8656 8658 28
6927 8656 8659 28
6928 8656 8660 28
6929 8661 8662 28
6930 8661 8663 28
6931 8661 8664 28
6932 8661 8665 28
6933 8666 8667 28
6934 8666 8668 28
6935 8666 8669 28
6936 8666 8670 28
6937 8671 8672 28
6938 8671 8673 28
6939 8671 8674 28
6940 8671 8675 28
6941 8676 8677 28
6942 8676 8678 28
6943 8676 8679 28
6944 8676 8680 28
6945 8681 8682 28
6946 8681 8683 28
6947 8681 8684 28
6948 8681 8685 28
6949 8686 8687 28
6950 8686 8688 28
6951 8686 8689 28
6952 8686 8690 28
6953 8691 8692 28
6954 8691 8693 28
6955 8691 8694 28
6956 8691 8695 28
6957 8696 8697 28
6958 8696 8698 28
6959 8696 8699 28
6960 8696 8700 28
6961 8701 8702 28
6962 8701 8703 28
6963 8701 8704 28
6964 8701 8705 28
6965 8706 8707 28
6966 8706 8708 28
6967 8706 8709 28
6968 8706 8710 28
6969 8711 8712 28
6970 8711 8713 28
6971 8711 8714 28
6972 8711 8715 28
6973 8716 8717 28
6974 8716 8718 28
6975 8716 8719 28
6976 8716 8720 28
6977 8721 8722 28
6978 8721 8723 28
6979 8721 8724 28
6980 8721 8725 28
6981 8726 8727 28
6982 8726 8728 28
6983 8726 8729 28
6984 8726 8730 28
6985 8731 8732 28
6986 8731 8733 28
6987 8731 8734 28
6988 8731 8735 28
6989 8736 8737 28
6990 8736 8738 28
6991 8736 8739 28
6992 8736 8740 28
6993 8741 8742 28
6994 8741 8743 28
6995 8741 8744 28
6996 8741 8745 28
6997 8746 8747 28
6998 8746 8748 28
6999 8746 8749 28
7000 8746 8750 28
7001 8751 8752 28
7002 8751 8753 28
7003 8751 8754 28
7004 8751 8755 28
7005 8756 8757 28
7006 8756 8758 28
7007 8756 8759 28
7008 8756 8760 28
7009 8761 8762 28
7010 8761 8763 28
7011 8761 8764 28
7012 8761 8765 28
7013 8766 8767 28
7014 8766 8768 28
7015 8766 8769 28
7016 8766 8770 28
7017 8771 8772 28
7018 8771 8773 28
7019 8771 8774 28
7020 8771 8775 28
7021 8776 8777 28
7022 8776 8778 28
7023 8776 8779 28
7024 8776 8780 28
7025 8781 8782 28
7026 8781 8783 28
7027 8781 8784 28
7028 8781 8785 28
7029 8786 8787 28
7030 8786 8788 28
7031 8786 8789 28
7032 8786 8790 28
7033 8791 8792 28
7034 8791 8793 28
7035 8791 8794 28
7036 8791 8795 28
7037 8796 8797 28
7038 8796 8798 28
7039 8796 8799 28
7040 8796 8800 28
7041 8801 8802 28
7042 8801 8803 28
7043 8801 8804 28
7044 8801 8805 28
7045 8806 8807 28
7046 8806 8808 28
7047 8806 8809 28
7048 8806 8810 28
7049 8811 8812 28
7050 8811 8813 28
7051 8811 8814 28
7052 8811 8815 28
7053 8816 8817 28
7054 8816 8818 28
7055 8816 8819 28
7056 8816 8820 28
7057 8821 8822 28
7058 8821 8823 28
7059 8821 8824 28
7060 8821 8825 28
7061 8826 8827 28
7062 8826 8828 28
7063 8826 8829 28
7064 8826 8830 28
7065 8831 8832 28
7066 8831 8833 28
7067 8831 8834 28
7068 8831 8835 28
7069 8836 8837 28
7070 8836 8838 28
7071 8836 8839 28
7072 8836 8840 28
7073 8841 8842 28
7074 8841 8843 28
7075 8841 8844 28
7076 8841 8845 28
7077 8846 8847 28
7078 8846 8848 28
7079 8846 8849 28
7080 8846 8850 28
7081 8851 8852 28
7082 8851 8853 28
7083 8851 8854 28
7084 8851 8855 28
7085 8856 8857 28
7086 8856 8858 28
7087 8856 8859 28
7088 8856 8860 28
7089 8861 8862 28
7090 8861 8863 28
7091 8861 8864 28
7092 8861 8865 28
7093 8866 8867 28
7094 8866 8868 28
7095 8866 8869 28
7096 8866 8870 28
7097 8871 8872 28
7098 8871 8873 28
7099 8871 8874 28
7100 8871 8875 28
7101 8876 8877 28
7102 8876 8878 28
7103 8876 8879 28
7104 8876 8880 28
7105 8881 8882 28
7106 8881 8883 28
7107 8881 8884 28
7108 8881 8885 28
7109 8886 8887 28
7110 8886 8888 28
7111 8886 8889 28
7112 8886 8890 28
7113 8891 8892 28
7114 8891 8893 28
7115 8891 8894 28
7116 8891 8895 28
7117 8896 8897 28
7118 8896 8898 28
7119 8896 8899 28
7120 8896 8900 28
7121 8901 8902 28
7122 8901 8903 28
7123 8901 8904 28
7124 8901 8905 28
7125 8906 8907 28
7126 8906 8908 28
7127 8906 8909 28
7128 8906 8910 28
7129 8911 8912 28
7130 8911 8913 28
7131 8911 8914 28
7132 8911 8915 28
7133 8916 8917 28
7134 8916 8918 28
7135 8916 8919 28
7136 8916 8920 28
7137 8921 8922 28
7138 8921 8923 28
7139 8921 8924 28
7140 8921 8925 28
7141 8926 8927 28
7142 8926 8928 28
7143 8926 8929 28
7144 8926 8930 28
7145 8931 8932 28
7146 8931 8933 28
7147 8931 8934 28
7148 8931 8935 28
7149 8936 8937 28
7150 8936 8938 28
7151 8936 8939 28
7152 8936 8940 28
7153 8941 8942 28
7154 8941 8943 28
7155 8941 8944 28
7156 8941 8945 28
7157 8946 8947 28
7158 8946 8948 28
7159 8946 8949 28
7160 8946 8950 28
7161 8951 8952 28
7162 8951 8953 28
7163 8951 8954 28
7164 8951 8955 28
7165 8956 8957 28
7166 8956 8958 28
7167 8956 8959 28
7168 8956 8960 28
7169 8961 8962 28
7170 8961 8963 28
7171 8961 8964 28
7172 8961 8965 28
7173 8966 8967 28
7174 8966 8968 28
7175 8966 8969 28
7176 8966 8970 28
7177 8971 8972 28
7178 8971 8973 28
7179 8971 8974 28
7180 8971 8975 28
7181 8976 8977 28
7182 8976 8978 28
7183 8976 8979 28
7184 8976 8980 28
7185 8981 8982 28
7186 8981 8983 28
7187 8981 8984 28
7188 8981 8985 28
7189 8986 8987 28
7190 8986 8988 28
7191 8986 8989 28
7192 8986 8990 28
7193 8991 8992 28
7194 8991 8993 28
7195 8991 8994 28
7196 8991 8995 28
7197 8996 8997 28
7198 8996 8998 28
7199 8996 8999 28
7200 8996 9000 28
7201 9001 9002 28
7202 9001 9003 28
7203 9001 9004 28
7204 9001 9005 28
7205 9006 9007 28
7206 9006 9008 28
7207 9006 9009 28
7208 9006 9010 28
7209 9011 9012 28
7210 9011 9013 28
7211 9011 9014 28
7212 9011 9015 28
7213 9016 9017 28
7214 9016 9018 28
7215 9016 9019 28
7216 9016 9020 28
7217 9021 9022 28
7218 9021 9023 28
7219 9021 9024 28
7220 9021 9025 28
7221 9026 9027 28
7222 9026 9028 28
7223 9026 9029 28
7224 9026 9030 28
7225 9031 9032 28
7226 9031 9033 28
7227 9031 9034 28
7228 9031 9035 28
7229 9036 9037 28
7230 9036 9038 28
7231 9036 9039 28
7232 9036 9040 28
7233 9041 9042 28
7234 9041 9043 28
7235 9041 9044 28
7236 9041 9045 28
7237 9046 9047 28
7238 9046 9048 28
7239 9046 9049 28
7240 9046 9050 28
7241 9051 9052 28
7242 9051 9053 28
7243 9051 9054 28
7244 9051 9055 28
7245 9056 9057 28
7246 9056 9058 28
7247 9056 9059 28
7248 9056 9060 28
7249 9061 9062 28
7250 9061 9063 28
7251 9061 9064 28
7252 9061 9065 28
7253 9066 9067 28
7254 9066 9068 28
7255 9066 9069 28
7256 9066 9070 28
7257 9071 9072 28
7258 9071 9073 28
7259 9071 9074 28
7260 9071 9075 28
7261 9076 9077 28
7262 9076 9078 28
7263 9076 9079 28
7264 9076 9080 28
7265 9081 9082 28
7266 9081 9083 28
7267 9081 9084 28
7268 9081 9085 28
7269 9086 9087 28
7270 9086 9088 28
7271 9086 9089 28
7272 9086 9090 28
7273 9091 9092 28
7274 9091 9093 28
7275 9091 9094 28
7276 9091 9095 28
7277 9096 9097 28
7278 9096 9098 28
7279 9096 9099 28
7280 9096 9100 28
7281 9101 9102 28
7282 9101 9103 28
7283 9101 9104 28
7284 9101 9105 28
7285 9106 9107 28
7286 9106 9108 28
7287 9106 9109 28
7288 9106 9110 28
7289 9111 9112 28
7290 9111 9113 28
7291 9111 9114 28
7292 9111 9115 28
7293 9116 9117 28
7294 9116 9118 28
7295 9116 9119 28
7296 9116 9120 28
7297 9121 9122 28
7298 9121 9123 28
7299 9121 9124 28
7300 9121 9125 28
7301 9126 9127 28
7302 9126 9128 28
7303 9126 9129 28
7304 9126 9130 28
7305 9131 9132 28
7306 9131 9133 28
7307 9131 9134 28
7308 9131 9135 28
7309 9136 9137 28
7310 9136 9138 28
7311 9136 9139 28
7312 9136 9140 28
7313 9141 9142 28
7314 9141 9143 28
7315 9141 9144 28
7316 9141 9145 28
7317 9146 9147 28
7318 9146 9148 28
7319 9146 9149 28
7320 9146 9150 28
7321 9151 9152 28
7322 9151 9153 28
7323 9151 9154 28
7324 9151 9155 28
7325 9156 9157 28
7326 9156 9158 28
7327 9156 9159 28
7328 9156 9160 28
7329 9161 9162 28
7330 9161 9163 28
7331 9161 9164 28
7332 9161 9165 28
7333 9166 9167 28
7334 9166 9168 28
7335 9166 9169 28
7336 9166 9170 28
7337 9171 9172 28
7338 9171 9173 28
7339 9171 9174 28
7340 9171 9175 28
7341 9176 9177 28
7342 9176 9178 28
7343 9176 9179 28
7344 9176 9180 28
7345 9181 9182 28
7346 9181 9183 28
7347 9181 9184 28
7348 9181 9185 28
7349 9186 9187 28
7350 9186 9188 28
7351 9186 9189 28
7352 9186 9190 28
7353 9191 9192 28
7354 9191 9193 28
7355 9191 9194 28
7356 9191 9195 28
7357 9196 9197 28
7358 9196 9198 28
7359 9196 9199 28
7360 9196 9200 28
7361 9201 9202 28
7362 9201 9203 28
7363 9201 9204 28
7364 9201 9205 28
7365 9206 9207 28
7366 9206 9208 28
7367 9206 9209 28
7368 9206 9210 28
7369 9211 9212 28
7370 9211 9213 28
7371 9211 9214 28
7372 9211 9215 28
7373 9216 9217 28
7374 9216 9218 28
7375 9216 9219 28
7376 9216 9220 28
7377 9221 9222 28
7378 9221 9223 28
7379 9221 9224 28
7380 9221 9225 28
7381 9226 9227 28
7382 9226 9228 28
7383 9226 9229 28
7384 9226 9230 28
7385 9231 9232 28
7386 9231 9233 28
7387 9231 9234 28
7388 9231 9235 28
7389 9236 9237 28
7390 9236 9238 28
7391 9236 9239 28
7392 9236 9240 28
7393 9241 9242 28
7394 9241 9243 28
7395 9241 9244 28
7396 9241 9245 28
7397 9246 9247 28
7398 9246 9248 28
7399 9246 9249 28
7400 9246 9250 28
7401 9251 9252 28
7402 9251 9253 28
7403 9251 9254 28
7404 9251 9255 28
7405 9256 9257 28
7406 9256 9258 28
7407 9256 9259 28
7408 9256 9260 28
7409 9261 9262 28
7410 9261 9263 28
7411 9261 9264 28
7412 9261 9265 28
7413 9266 9267 28
7414 9266 9268 28
7415 9266 9269 28
7416 9266 9270 28
7417 9271 9272 28
7418 9271 9273 28
7419 9271 9274 28
7420 9271 9275 28
7421 9276 9277 28
7422 9276 9278 28
7423 9276 9279 28
7424 9276 9280 28
7425 9281 9282 28
7426 9281 9283 28
7427 9281 9284 28
7428 9281 9285 28
7429 9286 9287 28
7430 9286 9288 28
7431 9286 9289 28
7432 9286 9290 28
7433 9291 9292 28
7434 9291 9293 28
7435 9291 9294 28
7436 9291 9295 28
7437 9296 9297 28
7438 9296 9298 28
7439 9296 9299 28
7440 9296 9300 28
7441 9301 9302 28
7442 9301 9303 28
7443 9301 9304 28
7444 9301 9305 28
7445 9306 9307 28
7446 9306 9308 28
7447 9306 9309 28
7448 9306 9310 28
7449 9311 9312 28
7450 9311 9313 28
7451 9311 9314 28
7452 9311 9315 28
7453 9316 9317 28
7454 9316 9318 28
7455 9316 9319 28
7456 9316 9320 28
7457 9321 9322 28
7458 9321 9323 28
7459 9321 9324 28
7460 9321 9325 28
7461 9326 9327 28
7462 9326 9328 28
7463 9326 9329 28
7464 9326 9330 28
7465 9331 9332 28
7466 9331 9333 28
7467 9331 9334 28
7468 9331 9335 28
7469 9336 9337 28
7470 9336 9338 28
7471 9336 9339 28
7472 9336 9340 28
7473 9341 9342 28
7474 9341 9343 28
7475 9341 9344 28
7476 9341 9345 28
7477 9346 9347 28
7478 9346 9348 28
7479 9346 9349 28
7480 9346 9350 28
7481 9351 9352 28
7482 9351 9353 28
7483 9351 9354 28
7484 9351 9355 28
7485 9356 9357 28
7486 9356 9358 28
7487 9356 9359 28
7488 9356 9360 28
7489 9361 9362 28
7490 9361 9363 28
7491 9361 9364 28
7492 9361 9365 28
7493 9366 9367 28
7494 9366 9368 28
7495 9366 9369 28
7496 9366 9370 28
7497 9371 9372 28
7498 9371 9373 28
7499 9371 9374 28
7500 9371 9375 28
7501 9376 9377 28
7502 9376 9378 28
7503 9376 9379 28
7504 9376 9380 28
7505 9381 9382 28
7506 9381 9383 28
7507 9381 9384 28
7508 9381 9385 28
7509 9386 9387 28
7510 9386 9388 28
7511 9386 9389 28
7512 9386 9390 28
7513 9391 9392 28
7514 9391 9393 28
7515 9391 9394 28
7516 9391 9395 28
7517 9396 9397 28
7518 9396 9398 28
7519 9396 9399 28
7520 9396 9400 28
7521 9401 9402 28
7522 9401 9403 28
7523 9401 9404 28
7524 9401 9405 28
7525 9406 9407 28
7526 9406 9408 28
7527 9406 9409 28
7528 9406 9410 28
7529 9411 9412 28
7530 9411 9413 28
7531 9411 9414 28
7532 9411 9415 28
7533 9416 9417 28
7534 9416 9418 28
7535 9416 9419 28
7536 9416 9420 28
7537 9421 9422 28
7538 9421 9423 28
7539 9421 9424 28
7540 9421 9425 28
7541 9426 9427 28
7542 9426 9428 28
7543 9426 9429 28
7544 9426 9430 28
7545 9431 9432 28
7546 9431 9433 28
7547 9431 9434 28
7548 9431 9435 28
7549 9436 9437 28
7550 9436 9438 28
7551 9436 9439 28
7552 9436 9440 28
7553 9441 9442 28
7554 9441 9443 28
7555 9441 9444 28
7556 9441 9445 28
7557 9446 9447 28
7558 9446 9448 28
7559 9446 9449 28
7560 9446 9450 28
7561 9451 9452 28
7562 9451 9453 28
7563 9451 9454 28
7564 9451 9455 28
7565 9456 9457 28
7566 9456 9458 28
7567 9456 9459 28
7568 9456 9460 28
7569 9461 9462 28
7570 9461 9463 28
7571 9461 9464 28
7572 9461 9465 28
7573 9466 9467 28
7574 9466 9468 28
7575 9466 9469 28
7576 9466 9470 28
7577 9471 9472 28
7578 9471 9473 28
7579 9471 9474 28
7580 9471 9475 28
7581 9476 9477 28
7582 9476 9478 28
7583 9476 9479 28
7584 9476 9480 28
7585 9481 9482 28
7586 9481 9483 28
7587 9481 9484 28
7588 9481 9485 28
7589 9486 9487 28
7590 9486 9488 28
7591 9486 9489 28
7592 9486 9490 28
7593 9491 9492 28
7594 9491 9493 28
7595 9491 9494 28
7596 9491 9495 28
7597 9496 9497 28
7598 9496 9498 28
7599 9496 9499 28
7600 9496 9500 28
7601 9501 9502 28
7602 9501 9503 28
7603 9501 9504 28
7604 9501 9505 28
7605 9506 9507 28
7606 9506 9508 28
7607 9506 9509 28
7608 9506 9510 28
7609 9511 9512 28
7610 9511 9513 28
7611 9511 9514 28
7612 9511 9515 28
7613 9516 9517 28
7614 9516 9518 28
7615 9516 9519 28
7616 9516 9520 28
7617 9521 9522 28
7618 9521 9523 28
7619 9521 9524 28
7620 9521 9525 28
7621 9526 9527 28
7622 9526 9528 28
7623 9526 9529 28
7624 9526 9530 28
7625 9531 9532 28
7626 9531 9533 28
7627 9531 9534 28
7628 9531 9535 28
7629 9536 9537 28
7630 9536 9538 28
7631 9536 9539 28
7632 9536 9540 28
7633 9541 9542 28
7634 9541 9543 28
7635 9541 9544 28
7636 9541 9545 28
7637 9546 9547 28
7638 9546 9548 28
7639 9546 9549 28
7640 9546 9550 28
7641 9551 9552 28
7642 9551 9553 28
7643 9551 9554 28
7644 9551 9555 28
7645 9556 9557 28
7646 9556 9558 28
7647 9556 9559 28
7648 9556 9560 28
7649 9561 9562 28
7650 9561 9563 28
7651 9561 9564 28
7652 9561 9565 28
7653 9566 9567 28
7654 9566 9568 28
7655 9566 9569 28
7656 9566 9570 28
7657 9571 9572 28
7658 9571 9573 28
7659 9571 9574 28
7660 9571 9575 28
7661 9576 9577 28
7662 9576 9578 28
7663 9576 9579 28
7664 9576 9580 28
7665 9581 9582 28
7666 9581 9583 28
7667 9581 9584 28
7668 9581 9585 28
7669 9586 9587 28
7670 9586 9588 28
7671 9586 9589 28
7672 9586 9590 28
7673 9591 9592 28
7674 9591 9593 28
7675 9591 9594 28
7676 9591 9595 28
7677 9596 9597 28
7678 9596 9598 28
7679 9596 9599 28
7680 9596 9600 28
7681 9601 9602 28
7682 9601 9603 28
7683 9601 9604 28
7684 9601 9605 28
7685 9606 9607 28
7686 9606 9608 28
7687 9606 9609 28
7688 9606 9610 28
7689 9611 9612 28
7690 9611 9613 28
7691 9611 9614 28
7692 9611 9615 28
7693 9616 9617 28
7694 9616 9618 28
7695 9616 9619 28
7696 9616 9620 28
7697 9621 9622 28
7698 9621 9623 28
7699 9621 9624 28
7700 9621 9625 28
7701 9626 9627 28
7702 9626 9628 28
7703 9626 9629 28
7704 9626 9630 28
7705 9631 9632 28
7706 9631 9633 28
7707 9631 9634 28
7708 9631 9635 28
7709 9636 9637 28
7710 9636 9638 28
7711 9636 9639 28
7712 9636 9640 28
7713 9641 9642 28
7714 9641 9643 28
7715 9641 9644 28
7716 9641 9645 28
7717 9646 9647 28
7718 9646 9648 28
7719 9646 9649 28
7720 9646 9650 28
7721 9651 9652 28
7722 9651 9653 28
7723 9651 9654 28
7724 9651 9655 28
7725 9656 9657 28
7726 9656 9658 28
7727 9656 9659 28
7728 9656 9660 28
7729 9661 9662 28
7730 9661 9663 28
7731 9661 9664 28
7732 9661 9665 28
7733 9666 9667 28
7734 9666 9668 28
7735 9666 9669 28
7736 9666 9670 28
7737 9671 9672 28
7738 9671 9673 28
7739 9671 9674 28
7740 9671 9675 28
7741 9676 9677 28
7742 9676 9678 28
7743 9676 9679 28
7744 9676 9680 28
7745 9681 9682 28
7746 9681 9683 28
7747 9681 9684 28
7748 9681 9685 28
7749 9686 9687 28
7750 9686 9688 28
7751 9686 9689 28
7752 9686 9690 28
7753 9691 9692 28
7754 9691 9693 28
7755 9691 9694 28
7756 9691 9695 28
7757 9696 9697 28
7758 9696 9698 28
7759 9696 9699 28
7760 9696 9700 28
7761 9701 9702 28
7762 9701 9703 28
7763 9701 9704 28
7764 9701 9705 28
7765 9706 9707 28
7766 9706 9708 28
7767 9706 9709 28
7768 9706 9710 28
7769 9711 9712 28
7770 9711 9713 28
7771 9711 9714 28
7772 9711 9715 28
7773 9716 9717 28
7774 9716 9718 28
7775 9716 9719 28
7776 9716 9720 28
7777 9721 9722 28
7778 9721 9723 28
7779 9721 9724 28
7780 9721 9725 28
7781 9726 9727 28
7782 9726 9728 28
7783 9726 9729 28
7784 9726 9730 28
7785 9731 9732 28
7786 9731 9733 28
7787 9731 9734 28
7788 9731 9735 28
7789 9736 9737 28
7790 9736 9738 28
7791 9736 9739 28
7792 9736 9740 28
7793 9741 9742 28
7794 9741 9743 28
7795 9741 9744 28
7796 9741 9745 28
7797 9746 9747 28
7798 9746 9748 28
7799 9746 9749 28
7800 9746 9750 28
7801 9751 9752 28
7802 9751 9753 28
7803 9751 9754 28
7804 9751 9755 28
7805 9756 9757 28
7806 9756 9758 28
7807 9756 9759 28
7808 9756 9760 28
7809 9761 9762 28
7810 9761 9763 28
7811 9761 9764 28
7812 9761 9765 28
7813 9766 9767 28
7814 9766 9768 28
7815 9766 9769 28
7816 9766 9770 28
7817 9771 9772 28
7818 9771 9773 28
7819 9771 9774 28
7820 9771 9775 28
7821 9776 9777 28
7822 9776 9778 28
7823 9776 9779 28
7824 9776 9780 28
7825 9781 9782 28
7826 9781 9783 28
7827 9781 9784 28
7828 9781 9785 28
7829 9786 9787 28
7830 9786 9788 28
7831 9786 9789 28
7832 9786 9790 28
7833 9791 9792 28
7834 9791 9793 28
7835 9791 9794 28
7836 9791 9795 28
7837 9796 9797 28
7838 9796 9798 28
7839 9796 9799 28
7840 9796 9800 28
7841 9801 9802 28
7842 9801 9803 28
7843 9801 9804 28
7844 9801 9805 28
7845 9806 9807 28
7846 9806 9808 28
7847 9806 9809 28
7848 9806 9810 28
7849 9811 9812 28
7850 9811 9813 28
7851 9811 9814 28
7852 9811 9815 28
7853 9816 9817 28
7854 9816 9818 28
7855 9816 9819 28
7856 9816 9820 28
7857 9821 9822 28
7858 9821 9823 28
7859 9821 9824 28
7860 9821 9825 28
7861 9826 9827 28
7862 9826 9828 28
7863 9826 9829 28
7864 9826 9830 28
7865 9831 9832 28
7866 9831 9833 28
7867 9831 9834 28
7868 9831 9835 28
7869 9836 9837 28
7870 9836 9838 28
7871 9836 9839 28
7872 9836 9840 28
7873 9841 9842 28
7874 9841 9843 28
7875 9841 9844 28
7876 9841 9845 28
7877 9846 9847 28
7878 9846 9848 28
7879 9846 9849 28
7880 9846 9850 28
7881 9851 9852 28
7882 9851 9853 28
7883 9851 9854 28
7884 9851 9855 28
7885 9856 9857 28
7886 9856 9858 28
7887 9856 9859 28
7888 9856 9860 28
7889 9861 9862 28
7890 9861 9863 28
7891 9861 9864 28
7892 9861 9865 28
7893 9866 9867 28
7894 9866 9868 28
7895 9866 9869 28
7896 9866 9870 28
7897 9871 9872 28
7898 9871 9873 28
7899 9871 9874 28
7900 9871 9875 28
7901 9876 9877 28
7902 9876 9878 28
7903 9876 9879 28
7904 9876 9880 28
7905 9881 9882 28
7906 9881 9883 28
7907 9881 9884 28
7908 9881 9885 28
7909 9886 9887 28
7910 9886 9888 28
7911 9886 9889 28
7912 9886 9890 28
7913 9891 9892 28
7914 9891 9893 28
7915 9891 9894 28
7916 9891 9895 28
7917 9896 9897 28
7918 9896 9898 28
7919 9896 9899 28
7920 9896 9900 28
7921 9901 9902 28
7922 9901 9903 28
7923 9901 9904 28
7924 9901 9905 28
7925 9906 9907 28
7926 9906 9908 28
7927 9906 9909 28
7928 9906 9910 28
7929 9911 9912 28
7930 9911 9913 28
7931 9911 9914 28
7932 9911 9915 28
7933 9916 9917 28
7934 9916 9918 28
7935 9916 9919 28
7936 9916 9920 28
7937 9921 9922 28
7938 9921 9923 28
7939 9921 9924 28
7940 9921 9925 28
7941 9926 9927 28
7942 9926 9928 28
7943 9926 9929 28
7944 9926 9930 28
7945 9931 9932 28
7946 9931 9933 28
7947 9931 9934 28
7948 9931 9935 28
7949 9936 9937 28
7950 9936 9938 28
7951 9936 9939 28
7952 9936 9940 28
7953 9941 9942 28
7954 9941 9943 28
7955 9941 9944 28
7956 9941 9945 28
7957 9946 9947 28
7958 9946 9948 28
7959 9946 9949 28
7960 9946 9950 28
7961 9951 9952 28
7962 9951 9953 28
7963 9951 9954 28
7964 9951 9955 28
7965 9956 9957 28
7966 9956 9958 28
7967 9956 9959 28
7968 9956 9960 28
7969 9961 9962 28
7970 9961 9963 28
7971 9961 9964 28
7972 9961 9965 28
7973 9966 9967 28
7974 9966 9968 28
7975 9966 9969 28
7976 9966 9970 28
7977 9971 9972 28
7978 9971 9973 28
7979 9971 9974 28
7980 9971 9975 28
7981 9976 9977 28
7982 9976 9978 28
7983 9976 9979 28
7984 9976 9980 28
7985 9981 9982 28
7986 9981 9983 28
7987 9981 9984 28
7988 9981 9985 28
7989 9986 9987 28
7990 9986 9988 28
7991 9986 9989 28
7992 9986 9990 28
7993 9991 9992 28
7994 9991 9993 28
7995 9991 9994 28
7996 9991 9995 28
7997 9996 9997 28
7998 9996 9998 28
7999 9996 9999 28
8000 9996 10000 28
8001 10001 10002 28
8002 10001 10003 28
8003 10001 10004 28
8004 10001 10005 28
8005 10006 10007 28
8006 10006 10008 28
8007 10006 10009 28
8008 10006 10010 28
8009 10011 10012 28
8010 10011 10013 28
8011 10011 10014 28
8012 10011 10015 28
8013 10016 10017 28
8014 10016 10018 28
8015 10016 10019 28
8016 10016 10020 28
8017 10021 10022 28
8018 10021 10023 28
8019 10021 10024 28
8020 10021 10025 28
8021 10026 10027 28
8022 10026 10028 28
8023 10026 10029 28
8024 10026 10030 28
8025 10031 10032 28
8026 10031 10033 28
8027 10031 10034 28
8028 10031 10035 28
8029 10036 10037 28
8030 10036 10038 28
8031 10036 10039 28
8032 10036 10040 28
8033 10041 10042 28
8034 10041 10043 28
8035 10041 10044 28
8036 10041 10045 28
8037 10046 10047 28
8038 10046 10048 28
8039 10046 10049 28
8040 10046 10050 28
8041 10051 10052 28
8042 10051 10053 28
8043 10051 10054 28
8044 10051 10055 28
8045 10056 10057 28
8046 10056 10058 28
8047 10056 10059 28
8048 10056 10060 28
8049 10061 10062 28
8050 10061 10063 28
8051 10061 10064 28
8052 10061 10065 28
8053 10066 10067 28
8054 10066 10068 28
8055 10066 10069 28
8056 10066 10070 28
8057 10071 10072 28
8058 10071 10073 28
8059 10071 10074 28
8060 10071 10075 28
8061 10076 10077 28
8062 10076 10078 28
8063 10076 10079 28
8064 10076 10080 28
8065 10081 10082 28
8066 10081 10083 28
8067 10081 10084 28
8068 10081 10085 28
8069 10086 10087 28
8070 10086 10088 28
8071 10086 10089 28
8072 10086 10090 28
8073 10091 10092 28
8074 10091 10093 28
8075 10091 10094 28
8076 10091 10095 28
8077 10096 10097 28
8078 10096 10098 28
8079 10096 10099 28
8080 10096 10100 28
8081 10101 10102 28
8082 10101 10103 28
8083 10101 10104 28
8084 10101 10105 28
8085 10106 10107 28
8086 10106 10108 28
8087 10106 10109 28
8088 10106 10110 28
8089 10111 10112 28
8090 10111 10113 28
8091 10111 10114 28
8092 10111 10115 28
8093 10116 10117 28
8094 10116 10118 28
8095 10116 10119 28
8096 10116 10120 28
8097 10121 10122 28
8098 10121 10123 28
8099 10121 10124 28
8100 10121 10125 28
8101 10126 10127 28
8102 10126 10128 28
8103 10126 10129 28
8104 10126 10130 28
8105 10131 10132 28
8106 10131 10133 28
8107 10131 10134 28
8108 10131 10135 28
8109 10136 10137 28
8110 10136 10138 28
8111 10136 10139 28
8112 10136 10140 28
8113 10141 10142 28
8114 10141 10143 28
8115 10141 10144 28
8116 10141 10145 28
8117 10146 10147 28
8118 10146 10148 28
8119 10146 10149 28
8120 10146 10150 28
8121 10151 10152 28
8122 10151 10153 28
8123 10151 10154 28
8124 10151 10155 28
8125 10156 10157 28
8126 10156 10158 28
8127 10156 10159 28
8128 10156 10160 28
8129 10161 10162 28
8130 10161 10163 28
8131 10161 10164 28
8132 10161 10165 28
8133 10166 10167 28
8134 10166 10168 28
8135 10166 10169 28
8136 10166 10170 28
8137 10171 10172 28
8138 10171 10173 28
8139 10171 10174 28
8140 10171 10175 28
8141 10176 10177 28
8142 10176 10178 28
8143 10176 10179 28
8144 10176 10180 28
8145 10181 10182 28
8146 10181 10183 28
8147 10181 10184 28
8148 10181 10185 28
8149 10186 10187 28
8150 10186 10188 28
8151 10186 10189 28
8152 10186 10190 28
8153 10191 10192 28
8154 10191 10193 28
8155 10191 10194 28
8156 10191 10195 28
8157 10196 10197 28
8158 10196 10198 28
8159 10196 10199 28
8160 10196 10200 28
8161 10201 10202 28
8162 10201 10203 28
8163 10201 10204 28
8164 10201 10205 28
8165 10206 10207 28
8166 10206 10208 28
8167 10206 10209 28
8168 10206 10210 28
8169 10211 10212 28
8170 10211 10213 28
8171 10211 10214 28
8172 10211 10215 28
8173 10216 10217 28
8174 10216 10218 28
8175 10216 10219 28
8176 10216 10220 28
8177 10221 10222 28
8178 10221 10223 28
8179 10221 10224 28
8180 10221 10225 28
8181 10226 10227 28
8182 10226 10228 28
8183 10226 10229 28
8184 10226 10230 28
8185 10231 10232 28
8186 10231 10233 28
8187 10231 10234 28
8188 10231 10235 28
8189 10236 10237 28
8190 10236 10238 28
8191 10236 10239 28
8192 10236 10240 28
8193 10241 10242 28
8194 10241 10243 28
8195 10241 10244 28
8196 10241 10245 28
8197 10246 10247 28
8198 10246 10248 28
8199 10246 10249 28
8200 10246 10250 28
8201 10251 10252 28
8202 10251 10253 28
8203 10251 10254 28
8204 10251 10255 28
8205 10256 10257 28
8206 10256 10258 28
8207 10256 10259 28
8208 10256 10260 28
8209 10261 10262 28
8210 10261 10263 28
8211 10261 10264 28
8212 10261 10265 28
8213 10266 10267 28
8214 10266 10268 28
8215 10266 10269 28
8216 10266 10270 28
8217 10271 10272 28
8218 10271 10273 28
8219 10271 10274 28
8220 10271 10275 28
8221 10276 10277 28
8222 10276 10278 28
8223 10276 10279 28
8224 10276 10280 28
8225 10281 10282 28
8226 10281 10283 28
8227 10281 10284 28
8228 10281 10285 28
8229 10286 10287 28
8230 10286 10288 28
8231 10286 10289 28
8232 10286 10290 28
8233 10291 10292 28
8234 10291 10293 28
8235 10291 10294 28
8236 10291 10295 28
8237 10296 10297 28
8238 10296 10298 28
8239 10296 10299 28
8240 10296 10300 28
8241 10301 10302 28
8242 10301 10303 28
8243 10301 10304 28
8244 10301 10305 28
8245 10306 10307 28
8246 10306 10308 28
8247 10306 10309 28
8248 10306 10310 28
8249 10311 10312 28
8250 10311 10313 28
8251 10311 10314 28
8252 10311 10315 28
8253 10316 10317 28
8254 10316 10318 28
8255 10316 10319 28
8256 10316 10320 28
8257 10321 10322 28
8258 10321 10323 28
8259 10321 10324 28
8260 10321 10325 28
8261 10326 10327 28
8262 10326 10328 28
8263 10326 10329 28
8264 10326 10330 28
8265 10331 10332 28
8266 10331 10333 28
8267 10331 10334 28
8268 10331 10335 28
8269 10336 10337 28
8270 10336 10338 28
8271 10336 10339 28
8272 10336 10340 28
8273 10341 10342 28
8274 10341 10343 28
8275 10341 10344 28
8276 10341 10345 28
8277 10346 10347 28
8278 10346 10348 28
8279 10346 10349 28
8280 10346 10350 28
8281 10351 10352 28
8282 10351 10353 28
8283 10351 10354 28
8284 10351 10355 28
8285 10356 10357 28
8286 10356 10358 28
8287 10356 10359 28
8288 10356 10360 28
8289 10361 10362 28
8290 10361 10363 28
8291 10361 10364 28
8292 10361 10365 28
8293 10366 10367 28
8294 10366 10368 28
8295 10366 10369 28
8296 10366 10370 28
8297 10371 10372 28
8298 10371 10373 28
8299 10371 10374 28
8300 10371 10375 28
8301 10376 10377 28
8302 10376 10378 28
8303 10376 10379 28
8304 10376 10380 28
8305 10381 10382 28
8306 10381 10383 28
8307 10381 10384 28
8308 10381 10385 28
8309 10386 10387 28
8310 10386 10388 28
8311 10386 10389 28
8312 10386 10390 28
8313 10391 10392 28
8314 10391 10393 28
8315 10391 10394 28
8316 10391 10395 28
8317 10396 10397 28
8318 10396 10398 28
8319 10396 10399 28
8320 10396 10400 28
8321 10401 10402 28
8322 10401 10403 28
8323 10401 10404 28
8324 10401 10405 28
8325 10406 10407 28
8326 10406 10408 28
8327 10406 10409 28
8328 10406 10410 28
8329 10411 10412 28
8330 10411 10413 28
8331 10411 10414 28
8332 10411 10415 28
8333 10416 10417 28
8334 10416 10418 28
8335 10416 10419 28
8336 10416 10420 28
8337 10421 10422 28
8338 10421 10423 28
8339 10421 10424 28
8340 10421 10425 28
8341 10426 10427 28
8342 10426 10428 28
8343 10426 10429 28
8344 10426 10430 28
8345 10431 10432 28
8346 10431 10433 28
8347 10431 10434 28
8348 10431 10435 28
8349 10436 10437 28
8350 10436 10438 28
8351 10436 10439 28
8352 10436 10440 28
8353 10441 10442 28
8354 10441 10443 28
8355 10441 10444 28
8356 10441 10445 28
8357 10446 10447 28
8358 10446 10448 28
8359 10446 10449 28
8360 10446 10450 28
8361 10451 10452 28
8362 10451 10453 28
8363 10451 10454 28
8364 10451 10455 28
8365 10456 10457 28
8366 10456 10458 28
8367 10456 10459 28
8368 10456 10460 28
8369 10461 10462 28
8370 10461 10463 28
8371 10461 10464 28
8372 10461 10465 28
8373 10466 10467 28
8374 10466 10468 28
8375 10466 10469 28
8376 10466 10470 28
8377 10471 10472 28
8378 10471 10473 28
8379 10471 10474 28
8380 10471 10475 28
8381 10476 10477 28
8382 10476 10478 28
8383 10476 10479 28
8384 10476 10480 28
8385 10481 10482 28
8386 10481 10483 28
8387 10481 10484 28
8388 10481 10485 28
8389 10486 10487 28
8390 10486 10488 28
8391 10486 10489 28
8392 10486 10490 28
8393 10491 10492 28
8394 10491 10493 28
8395 10491 10494 28
8396 10491 10495 28
8397 10496 10497 28
8398 10496 10498 28
8399 10496 10499 28
8400 10496 10500 28
8401 10501 10502 28
8402 10501 10503 28
8403 10501 10504 28
8404 10501 10505 28
8405 10506 10507 28
8406 10506 10508 28
8407 10506 10509 28
8408 10506 10510 28
8409 10511 10512 28
8410 10511 10513 28
8411 10511 10514 28
8412 10511 10515 28
8413 10516 10517 28
8414 10516 10518 28
8415 10516 10519 28
8416 10516 10520 28
8417 10521 10522 28
8418 10521 10523 28
8419 10521 10524 28
8420 10521 10525 28
8421 10526 10527 28
8422 10526 10528 28
8423 10526 10529 28
8424 10526 10530 28
8425 10531 10532 28
8426 10531 10533 28
8427 10531 10534 28
8428 10531 10535 28
8429 10536 10537 28
8430 10536 10538 28
8431 10536 10539 28
8432 10536 10540 28
8433 10541 10542 28
8434 10541 10543 28
8435 10541 10544 28
8436 10541 10545 28
8437 10546 10547 28
8438 10546 10548 28
8439 10546 10549 28
8440 10546 10550 28
8441 10551 10552 28
8442 10551 10553 28
8443 10551 10554 28
8444 10551 10555 28
8445 10556 10557 28
8446 10556 10558 28
8447 10556 10559 28
8448 10556 10560 28
8449 10561 10562 28
8450 10561 10563 28
8451 10561 10564 28
8452 10561 10565 28
8453 10566 10567 28
8454 10566 10568 28
8455 10566 10569 28
8456 10566 10570 28
8457 10571 10572 28
8458 10571 10573 28
8459 10571 10574 28
8460 10571 10575 28
8461 10576 10577 28
8462 10576 10578 28
8463 10576 10579 28
8464 10576 10580 28
8465 10581 10582 28
8466 10581 10583 28
8467 10581 10584 28
8468 10581 10585 28
8469 10586 10587 28
8470 10586 10588 28
8471 10586 10589 28
8472 10586 10590 28
8473 10591 10592 28
8474 10591 10593 28
8475 10591 10594 28
8476 10591 10595 28
8477 10596 10597 28
8478 10596 10598 28
8479 10596 10599 28
8480 10596 10600 28
8481 10601 10602 28
8482 10601 10603 28
8483 10601 10604 28
8484 10601 10605 28
8485 10606 10607 28
8486 10606 10608 28
8487 10606 10609 28
8488 10606 10610 28
8489 10611 10612 28
8490 10611 10613 28
8491 10611 10614 28
8492 10611 10615 28
8493 10616 10617 28
8494 10616 10618 28
8495 10616 10619 28
8496 10616 10620 28
8497 10621 10622 28
8498 10621 10623 28
8499 10621 10624 28
8500 10621 10625 28
8501 10626 10627 28
8502 10626 10628 28
8503 10626 10629 28
8504 10626 10630 28
8505 10631 10632 28
8506 10631 10633 28
8507 10631 10634 28
8508 10631 10635 28
8509 10636 10637 28
8510 10636 10638 28
8511 10636 10639 28
8512 10636 10640 28
8513 10641 10642 28
8514 10641 10643 28
8515 10641 10644 28
8516 10641 10645 28
8517 10646 10647 28
8518 10646 10648 28
8519 10646 10649 28
8520 10646 10650 28
8521 10651 10652 28
8522 10651 10653 28
8523 10651 10654 28
8524 10651 10655 28
8525 10656 10657 28
8526 10656 10658 28
8527 10656 10659 28
8528 10656 10660 28
8529 10661 10662 28
8530 10661 10663 28
8531 10661 10664 28
8532 10661 10665 28
8533 10666 10667 28
8534 10666 10668 28
8535 10666 10669 28
8536 10666 10670 28
8537 10671 10672 28
8538 10671 10673 28
8539 10671 10674 28
8540 10671 10675 28
8541 10676 10677 28
8542 10676 10678 28
8543 10676 10679 28
8544 10676 10680 28
8545 10681 10682 28
8546 10681 10683 28
8547 10681 10684 28
8548 10681 10685 28
8549 10686 10687 28
8550 10686 10688 28
8551 10686 10689 28
8552 10686 10690 28
8553 10691 10692 28
8554 10691 10693 28
8555 10691 10694 28
8556 10691 10695 28
8557 10696 10697 28
8558 10696 10698 28
8559 10696 10699 28
8560 10696 10700 28
8561 10701 10702 28
8562 10701 10703 28
8563 10701 10704 28
8564 10701 10705 28
8565 10706 10707 28
8566 10706 10708 28
8567 10706 10709 28
8568 10706 10710 28
8569 10711 10712 28
8570 10711 10713 28
8571 10711 10714 28
8572 10711 10715 28
8573 10716 10717 28
8574 10716 10718 28
8575 10716 10719 28
8576 10716 10720 28
8577 10721 10722 28
8578 10721 10723 28
8579 10721 10724 28
8580 10721 10725 28
8581 10726 10727 28
8582 10726 10728 28
8583 10726 10729 28
8584 10726 10730 28
8585 10731 10732 28
8586 10731 10733 28
8587 10731 10734 28
8588 10731 10735 28
8589 10736 10737 28
8590 10736 10738 28
8591 10736 10739 28
8592 10736 10740 28
8593 10741 10742 28
8594 10741 10743 28
8595 10741 10744 28
8596 10741 10745 28
8597 10746 10747 28
8598 10746 10748 28
8599 10746 10749 28
8600 10746 10750 28
8601 10751 10752 28
8602 10751 10753 28
8603 10751 10754 28
8604 10751 10755 28
8605 10756 10757 28
8606 10756 10758 28
8607 10756 10759 28
8608 10756 10760 28
8609 10761 10762 28
8610 10761 10763 28
8611 10761 10764 28
8612 10761 10765 28
8613 10766 10767 28
8614 10766 10768 28
8615 10766 10769 28
8616 10766 10770 28
8617 10771 10772 28
8618 10771 10773 28
8619 10771 10774 28
8620 10771 10775 28
8621 10776 10777 28
8622 10776 10778 28
8623 10776 10779 28
8624 10776 10780 28
8625 10781 10782 28
8626 10781 10783 28
8627 10781 10784 28
8628 10781 10785 28
8629 10786 10787 28
8630 10786 10788 28
8631 10786 10789 28
8632 10786 10790 28
8633 10791 10792 28
8634 10791 10793 28
8635 10791 10794 28
8636 10791 10795 28
8637 10796 10797 28
8638 10796 10798 28
8639 10796 10799 28
8640 10796 10800 28
8641 10801 10802 28
8642 10801 10803 28
8643 10801 10804 28
8644 10801 10805 28
8645 10806 10807 28
8646 10806 10808 28
8647 10806 10809 28
8648 10806 10810 28
8649 10811 10812 28
8650 10811 10813 28
8651 10811 10814 28
8652 10811 10815 28
8653 10816 10817 28
8654 10816 10818 28
8655 10816 10819 28
8656 10816 10820 28
8657 10821 10822 28
8658 10821 10823 28
8659 10821 10824 28
8660 10821 10825 28
8661 10826 10827 28
8662 10826 10828 28
8663 10826 10829 28
8664 10826 10830 28
8665 10831 10832 28
8666 10831 10833 28
8667 10831 10834 28
8668 10831 10835 28
8669 10836 10837 28
8670 10836 10838 28
8671 10836 10839 28
8672 10836 10840 28
8673 10841 10842 28
8674 10841 10843 28
8675 10841 10844 28
8676 10841 10845 28
8677 10846 10847 28
8678 10846 10848 28
8679 10846 10849 28
8680 10846 10850 28
8681 10851 10852 28
8682 10851 10853 28
8683 10851 10854 28
8684 10851 10855 28
8685 10856 10857 28
8686 10856 10858 28
8687 10856 10859 28
8688 10856 10860 28
8689 10861 10862 28
8690 10861 10863 28
8691 10861 10864 28
8692 10861 10865 28
8693 10866 10867 28
8694 10866 10868 28
8695 10866 10869 28
8696 10866 10870 28
8697 10871 10872 28
8698 10871 10873 28
8699 10871 10874 28
8700 10871 10875 28
8701 10876 10877 28
8702 10876 10878 28
8703 10876 10879 28
8704 10876 10880 28
8705 10881 10882 28
8706 10881 10883 28
8707 10881 10884 28
8708 10881 10885 28
8709 10886 10887 28
8710 10886 10888 28
8711 10886 10889 28
8712 10886 10890 28
8713 10891 10892 28
8714 10891 10893 28
8715 10891 10894 28
8716 10891 10895 28
8717 10896 10897 28
8718 10896 10898 28
8719 10896 10899 28
8720 10896 10900 28
8721 10901 10902 28
8722 10901 10903 28
8723 10901 10904 28
8724 10901 10905 28
8725 10906 10907 28
8726 10906 10908 28
8727 10906 10909 28
8728 10906 10910 28
8729 10911 10912 28
8730 10911 10913 28
8731 10911 10914 28
8732 10911 10915 28
8733 10916 10917 28
8734 10916 10918 28
8735 10916 10919 28
8736 10916 10920 28
8737 10921 10922 28
8738 10921 10923 28
8739 10921 10924 28
8740 10921 10925 28
8741 10926 10927 28
8742 10926 10928 28
8743 10926 10929 28
8744 10926 10930 28
8745 10931 10932 28
8746 10931 10933 28
8747 10931 10934 28
8748 10931 10935 28
8749 10936 10937 28
8750 10936 10938 28
8751 10936 10939 28
8752 10936 10940 28
8753 10941 10942 28
8754 10941 10943 28
8755 10941 10944 28
8756 10941 10945 28
8757 10946 10947 28
8758 10946 10948 28
8759 10946 10949 28
8760 10946 10950 28
8761 10951 10952 28
8762 10951 10953 28
8763 10951 10954 28
8764 10951 10955 28
8765 10956 10957 28
8766 10956 10958 28
8767 10956 10959 28
8768 10956 10960 28
8769 10961 10962 28
8770 10961 10963 28
8771 10961 10964 28
8772 10961 10965 28
8773 10966 10967 28
8774 10966 10968 28
8775 10966 10969 28
8776 10966 10970 28
8777 10971 10972 28
8778 10971 10973 28
8779 10971 10974 28
8780 10971 10975 28
8781 10976 10977 28
8782 10976 10978 28
8783 10976 10979 28
8784 10976 10980 28
8785 10981 10982 28
8786 10981 10983 28
8787 10981 10984 28
8788 10981 10985 28
8789 10986 10987 28
8790 10986 10988 28
8791 10986 10989 28
8792 10986 10990 28
8793 10991 10992 28
8794 10991 10993 28
8795 10991 10994 28
8796 10991 10995 28
8797 10996 10997 28
8798 10996 10998 28
8799 10996 10999 28
8800 10996 11000 28
8801 11001 11002 28
8802 11001 11003 28
8803 11001 11004 28
8804 11001 11005 28
8805 11006 11007 28
8806 11006 11008 28
8807 11006 11009 28
8808 11006 11010 28
8809 11011 11012 28
8810 11011 11013 28
8811 11011 11014 28
8812 11011 11015 28
8813 11016 11017 28
8814 11016 11018 28
8815 11016 11019 28
8816 11016 11020 28
8817 11021 11022 28
8818 11021 11023 28
8819 11021 11024 28
8820 11021 11025 28
8821 11026 11027 28
8822 11026 11028 28
8823 11026 11029 28
8824 11026 11030 28
8825 11031 11032 28
8826 11031 11033 28
8827 11031 11034 28
8828 11031 11035 28
8829 11036 11037 28
8830 11036 11038 28
8831 11036 11039 28
8832 11036 11040 28
8833 11041 11042 28
8834 11041 11043 28
8835 11041 11044 28
8836 11041 11045 28
8837 11046 11047 28
8838 11046 11048 28
8839 11046 11049 28
8840 11046 11050 28
8841 11051 11052 28
8842 11051 11053 28
8843 11051 11054 28
8844 11051 11055 28
8845 11056 11057 28
8846 11056 11058 28
8847 11056 11059 28
8848 11056 11060 28
8849 11061 11062 28
8850 11061 11063 28
8851 11061 11064 28
8852 11061 11065 28
8853 11066 11067 28
8854 11066 11068 28
8855 11066 11069 28
8856 11066 11070 28
8857 11071 11072 28
8858 11071 11073 28
8859 11071 11074 28
8860 11071 11075 28
8861 11076 11077 28
8862 11076 11078 28
8863 11076 11079 28
8864 11076 11080 28
8865 11081 11082 28
8866 11081 11083 28
8867 11081 11084 28
8868 11081 11085 28
8869 11086 11087 28
8870 11086 11088 28
8871 11086 11089 28
8872 11086 11090 28
8873 11091 11092 28
8874 11091 11093 28
8875 11091 11094 28
8876 11091 11095 28
8877 11096 11097 28
8878 11096 11098 28
8879 11096 11099 28
8880 11096 11100 28
8881 11101 11102 28
8882 11101 11103 28
8883 11101 11104 28
8884 11101 11105 28
8885 11106 11107 28
8886 11106 11108 28
8887 11106 11109 28
8888 11106 11110 28
8889 11111 11112 28
8890 11111 11113 28
8891 11111 11114 28
8892 11111 11115 28
8893 11116 11117 28
8894 11116 11118 28
8895 11116 11119 28
8896 11116 11120 28
8897 11121 11122 28
8898 11121 11123 28
8899 11121 11124 28
8900 11121 11125 28
8901 11126 11127 28
8902 11126 11128 28
8903 11126 11129 28
8904 11126 11130 28
8905 11131 11132 28
8906 11131 11133 28
8907 11131 11134 28
8908 11131 11135 28
8909 11136 11137 28
8910 11136 11138 28
8911 11136 11139 28
8912 11136 11140 28
8913 11141 11142 28
8914 11141 11143 28
8915 11141 11144 28
8916 11141 11145 28
8917 11146 11147 28
8918 11146 11148 28
8919 11146 11149 28
8920 11146 11150 28
8921 11151 11152 28
8922 11151 11153 28
8923 11151 11154 28
8924 11151 11155 28
8925 11156 11157 28
8926 11156 11158 28
8927 11156 11159 28
8928 11156 11160 28
8929 11161 11162 28
8930 11161 11163 28
8931 11161 11164 28
8932 11161 11165 28
8933 11166 11167 28
8934 11166 11168 28
8935 11166 11169 28
8936 11166 11170 28
8937 11171 11172 28
8938 11171 11173 28
8939 11171 11174 28
8940 11171 11175 28
8941 11176 11177 28
8942 11176 11178 28
8943 11176 11179 28
8944 11176 11180 28
8945 11181 11182 28
8946 11181 11183 28
8947 11181 11184 28
8948 11181 11185 28
8949 11186 11187 28
8950 11186 11188 28
8951 11186 11189 28
8952 11186 11190 28
8953 11191 11192 28
8954 11191 11193 28
8955 11191 11194 28
8956 11191 11195 28
8957 11196 11197 28
8958 11196 11198 28
8959 11196 11199 28
8960 11196 11200 28
8961 11201 11202 28
8962 11201 11203 28
8963 11201 11204 28
8964 11201 11205 28
8965 11206 11207 28
8966 11206 11208 28
8967 11206 11209 28
8968 11206 11210 28
8969 11211 11212 28
8970 11211 11213 28
8971 11211 11214 28
8972 11211 11215 28
8973 11216 11217 28
8974 11216 11218 28
8975 11216 11219 28
8976 11216 11220 28
8977 11221 11222 28
8978 11221 11223 28
8979 11221 11224 28
8980 11221 11225 28
8981 11226 11227 28
8982 11226 11228 28
8983 11226 11229 28
8984 11226 11230 28
8985 11231 11232 28
8986 11231 11233 28
8987 11231 11234 28
8988 11231 11235 28
8989 11236 11237 28
8990 11236 11238 28
8991 11236 11239 28
8992 11236 11240 28
8993 11241 11242 28
8994 11241 11243 28
8995 11241 11244 28
8996 11241 11245 28
8997 11246 11247 28
8998 11246 11248 28
8999 11246 11249 28
9000 11246 11250 28
9001 11251 11252 28
9002 11251 11253 28
9003 11251 11254 28
9004 11251 11255 28
9005 11256 11257 28
9006 11256 11258 28
9007 11256 11259 28
9008 11256 11260 28
9009 11261 11262 28
9010 11261 11263 28
9011 11261 11264 28
9012 11261 11265 28
9013 11266 11267 28
9014 11266 11268 28
9015 11266 11269 28
9016 11266 11270 28
9017 11271 11272 28
9018 11271 11273 28
9019 11271 11274 28
9020 11271 11275 28
9021 11276 11277 28
9022 11276 11278 28
9023 11276 11279 28
9024 11276 11280 28
9025 11281 11282 28
9026 11281 11283 28
9027 11281 11284 28
9028 11281 11285 28
9029 11286 11287 28
9030 11286 11288 28
9031 11286 11289 28
9032 11286 11290 28
9033 11291 11292 28
9034 11291 11293 28
9035 11291 11294 28
9036 11291 11295 28
9037 11296 11297 28
9038 11296 11298 28
9039 11296 11299 28
9040 11296 11300 28
9041 11301 11302 28
9042 11301 11303 28
9043 11301 11304 28
9044 11301 11305 28
9045 11306 11307 28
9046 11306 11308 28
9047 11306 11309 28
9048 11306 11310 28
9049 11311 11312 28
9050 11311 11313 28
9051 11311 11314 28
9052 11311 11315 28
9053 11316 11317 28
9054 11316 11318 28
9055 11316 11319 28
9056 11316 11320 28
9057 11321 11322 28
9058 11321 11323 28
9059 11321 11324 28
9060 11321 11325 28
9061 11326 11327 28
9062 11326 11328 28
9063 11326 11329 28
9064 11326 11330 28
9065 11331 11332 28
9066 11331 11333 28
9067 11331 11334 28
9068 11331 11335 28
9069 11336 11337 28
9070 11336 11338 28
9071 11336 11339 28
9072 11336 11340 28
9073 11341 11342 28
9074 11341 11343 28
9075 11341 11344 28
9076 11341 11345 28
9077 11346 11347 28
9078 11346 11348 28
9079 11346 11349 28
9080 11346 11350 28
9081 11351 11352 28
9082 11351 11353 28
9083 11351 11354 28
9084 11351 11355 28
9085 11356 11357 28
9086 11356 11358 28
9087 11356 11359 28
9088 11356 11360 28
9089 11361 11362 28
9090 11361 11363 28
9091 11361 11364 28
9092 11361 11365 28
9093 11366 11367 28
9094 11366 11368 28
9095 11366 11369 28
9096 11366 11370 28
9097 11371 11372 28
9098 11371 11373 28
9099 11371 11374 28
9100 11371 11375 28
9101 11376 11377 28
9102 11376 11378 28
9103 11376 11379 28
9104 11376 11380 28
9105 11381 11382 28
9106 11381 11383 28
9107 11381 11384 28
9108 11381 11385 28
9109 11386 11387 28
9110 11386 11388 28
9111 11386 11389 28
9112 11386 11390 28
9113 11391 11392 28
9114 11391 11393 28
9115 11391 11394 28
9116 11391 11395 28
9117 11396 11397 28
9118 11396 11398 28
9119 11396 11399 28
9120 11396 11400 28
9121 11401 11402 28
9122 11401 11403 28
9123 11401 11404 28
9124 11401 11405 28
9125 11406 11407 28
9126 11406 11408 28
9127 11406 11409 28
9128 11406 11410 28
9129 11411 11412 28
9130 11411 11413 28
9131 11411 11414 28
9132 11411 11415 28
9133 11416 11417 28
9134 11416 11418 28
9135 11416 11419 28
9136 11416 11420 28
9137 11421 11422 28
9138 11421 11423 28
9139 11421 11424 28
9140 11421 11425 28
9141 11426 11427 28
9142 11426 11428 28
9143 11426 11429 28
9144 11426 11430 28
9145 11431 11432 28
9146 11431 11433 28
9147 11431 11434 28
9148 11431 11435 28
9149 11436 11437 28
9150 11436 11438 28
9151 11436 11439 28
9152 11436 11440 28
9153 11441 11442 28
9154 11441 11443 28
9155 11441 11444 28
9156 11441 11445 28
9157 11446 11447 28
9158 11446 11448 28
9159 11446 11449 28
9160 11446 11450 28
9161 11451 11452 28
9162 11451 11453 28
9163 11451 11454 28
9164 11451 11455 28
9165 11456 11457 28
9166 11456 11458 28
9167 11456 11459 28
9168 11456 11460 28
9169 11461 11462 28
9170 11461 11463 28
9171 11461 11464 28
9172 11461 11465 28
9173 11466 11467 28
9174 11466 11468 28
9175 11466 11469 28
9176 11466 11470 28
9177 11471 11472 28
9178 11471 11473 28
9179 11471 11474 28
9180 11471 11475 28
9181 11476 11477 28
9182 11476 11478 28
9183 11476 11479 28
9184 11476 11480 28
9185 11481 11482 28
9186 11481 11483 28
9187 11481 11484 28
9188 11481 11485 28
9189 11486 11487 28
9190 11486 11488 28
9191 11486 11489 28
9192 11486 11490 28
9193 11491 11492 28
9194 11491 11493 28
9195 11491 11494 28
9196 11491 11495 28
9197 11496 11497 28
9198 11496 11498 28
9199 11496 11499 28
9200 11496 11500 28
9201 11501 11502 28
9202 11501 11503 28
9203 11501 11504 28
9204 11501 11505 28
9205 11506 11507 28
9206 11506 11508 28
9207 11506 11509 28
9208 11506 11510 28
9209 11511 11512 28
9210 11511 11513 28
9211 11511 11514 28
9212 11511 11515 28
9213 11516 11517 28
9214 11516 11518 28
9215 11516 11519 28
9216 11516 11520 28
9217 11521 11522 28
9218 11521 11523 28
9219 11521 11524 28
9220 11521 11525 28
9221 11526 11527 28
9222 11526 11528 28
9223 11526 11529 28
9224 11526 11530 28
9225 11531 11532 28
9226 11531 11533 28
9227 11531 11534 28
9228 11531 11535 28
9229 11536 11537 28
9230 11536 11538 28
9231 11536 11539 28
9232 11536 11540 28
9233 11541 11542 28
9234 11541 11543 28
9235 11541 11544 28
9236 11541 11545 28
9237 11546 11547 28
9238 11546 11548 28
9239 11546 11549 28
9240 11546 11550 28
9241 11551 11552 28
9242 11551 11553 28
9243 11551 11554 28
9244 11551 11555 28
9245 11556 11557 28
9246 11556 11558 28
9247 11556 11559 28
9248 11556 11560 28
9249 11561 11562 28
9250 11561 11563 28
9251 11561 11564 28
9252 11561 11565 28
9253 11566 11567 28
9254 11566 11568 28
9255 11566 11569 28
9256 11566 11570 28
9257 11571 11572 28
9258 11571 11573 28
9259 11571 11574 28
9260 11571 11575 28
9261 11576 11577 28
9262 11576 11578 28
9263 11576 11579 28
9264 11576 11580 28
9265 11581 11582 28
9266 11581 11583 28
9267 11581 11584 28
9268 11581 11585 28
9269 11586 11587 28
9270 11586 11588 28
9271 11586 11589 28
9272 11586 11590 28
9273 11591 11592 28
9274 11591 11593 28
9275 11591 11594 28
9276 11591 11595 28
9277 11596 11597 28
9278 11596 11598 28
9279 11596 11599 28
9280 11596 11600 28
9281 11601 11602 28
9282 11601 11603 28
9283 11601 11604 28
9284 11601 11605 28
9285 11606 11607 28
9286 11606 11608 28
9287 11606 11609 28
9288 11606 11610 28
9289 11611 11612 28
9290 11611 11613 28
9291 11611 11614 28
9292 11611 11615 28
9293 11616 11617 28
9294 11616 11618 28
9295 11616 11619 28
9296 11616 11620 28
9297 11621 11622 28
9298 11621 11623 28
9299 11621 11624 28
9300 11621 11625 28
9301 11626 11627 28
9302 11626 11628 28
9303 11626 11629 28
9304 11626 11630 28
9305 11631 11632 28
9306 11631 11633 28
9307 11631 11634 28
9308 11631 11635 28
9309 11636 11637 28
9310 11636 11638 28
9311 11636 11639 28
9312 11636 11640 28
9313 11641 11642 28
9314 11641 11643 28
9315 11641 11644 28
9316 11641 11645 28
9317 11646 11647 28
9318 11646 11648 28
9319 11646 11649 28
9320 11646 11650 28
9321 11651 11652 28
9322 11651 11653 28
9323 11651 11654 28
9324 11651 11655 28
9325 11656 11657 28
9326 11656 11658 28
9327 11656 11659 28
9328 11656 11660 28
9329 11661 11662 28
9330 11661 11663 28
9331 11661 11664 28
9332 11661 11665 28
9333 11666 11667 28
9334 11666 11668 28
9335 11666 11669 28
9336 11666 11670 28
9337 11671 11672 28
9338 11671 11673 28
9339 11671 11674 28
9340 11671 11675 28
9341 11676 11677 28
9342 11676 11678 28
9343 11676 11679 28
9344 11676 11680 28
9345 11681 11682 28
9346 11681 11683 28
9347 11681 11684 28
9348 11681 11685 28
9349 11686 11687 28
9350 11686 11688 28
9351 11686 11689 28
9352 11686 11690 28
9353 11691 11692 28
9354 11691 11693 28
9355 11691 11694 28
9356 11691 11695 28
9357 11696 11697 28
9358 11696 11698 28
9359 11696 11699 28
9360 11696 11700 28
9361 11701 11702 28
9362 11701 11703 28
9363 11701 11704 28
9364 11701 11705 28
9365 11706 11707 28
9366 11706 11708 28
9367 11706 11709 28
9368 11706 11710 28
9369 11711 11712 28
9370 11711 11713 28
9371 11711 11714 28
9372 11711 11715 28
9373 11716 11717 28
9374 11716 11718 28
9375 11716 11719 28
9376 11716 11720 28
9377 11721 11722 28
9378 11721 11723 28
9379 11721 11724 28
9380 11721 11725 28
9381 11726 11727 28
9382 11726 11728 28
9383 11726 11729 28
9384 11726 11730 28
9385 11731 11732 28
9386 11731 11733 28
9387 11731 11734 28
9388 11731 11735 28
9389 11736 11737 28
9390 11736 11738 28
9391 11736 11739 28
9392 11736 11740 28
9393 11741 11742 28
9394 11741 11743 28
9395 11741 11744 28
9396 11741 11745 28
9397 11746 11747 28
9398 11746 11748 28
9399 11746 11749 28
9400 11746 11750 28
9401 11751 11752 28
9402 11751 11753 28
9403 11751 11754 28
9404 11751 11755 28
9405 11756 11757 28
9406 11756 11758 28
9407 11756 11759 28
9408 11756 11760 28
9409 11761 11762 28
9410 11761 11763 28
9411 11761 11764 28
9412 11761 11765 28
9413 11766 11767 28
9414 11766 11768 28
9415 11766 11769 28
9416 11766 11770 28
9417 11771 11772 28
9418 11771 11773 28
9419 11771 11774 28
9420 11771 11775 28
9421 11776 11777 28
9422 11776 11778 28
9423 11776 11779 28
9424 11776 11780 28
9425 11781 11782 28
9426 11781 11783 28
9427 11781 11784 28
9428 11781 11785 28
9429 11786 11787 28
9430 11786 11788 28
9431 11786 11789 28
9432 11786 11790 28
9433 11791 11792 28
9434 11791 11793 28
9435 11791 11794 28
9436 11791 11795 28
9437 11796 11797 28
9438 11796 11798 28
9439 11796 11799 28
9440 11796 11800 28
9441 11801 11802 28
9442 11801 11803 28
9443 11801 11804 28
9444 11801 11805 28
9445 11806 11807 28
9446 11806 11808 28
9447 11806 11809 28
9448 11806 11810 28
9449 11811 11812 28
9450 11811 11813 28
9451 11811 11814 28
9452 11811 11815 28
9453 11816 11817 28
9454 11816 11818 28
9455 11816 11819 28
9456 11816 11820 28
9457 11821 11822 28
9458 11821 11823 28
9459 11821 11824 28
9460 11821 11825 28
9461 11826 11827 28
9462 11826 11828 28
9463 11826 11829 28
9464 11826 11830 28
9465 11831 11832 28
9466 11831 11833 28
9467 11831 11834 28
9468 11831 11835 28
9469 11836 11837 28
9470 11836 11838 28
9471 11836 11839 28
9472 11836 11840 28
9473 11841 11842 28
9474 11841 11843 28
9475 11841 11844 28
9476 11841 11845 28
9477 11846 11847 28
9478 11846 11848 28
9479 11846 11849 28
9480 11846 11850 28
9481 11851 11852 28
9482 11851 11853 28
9483 11851 11854 28
9484 11851 11855 28
9485 11856 11857 28
9486 11856 11858 28
9487 11856 11859 28
9488 11856 11860 28
9489 11861 11862 28
9490 11861 11863 28
9491 11861 11864 28
9492 11861 11865 28
9493 11866 11867 28
9494 11866 11868 28
9495 11866 11869 28
9496 11866 11870 28
9497 11871 11872 28
9498 11871 11873 28
9499 11871 11874 28
9500 11871 11875 28
9501 11876 11877 28
9502 11876 11878 28
9503 11876 11879 28
9504 11876 11880 28
9505 11881 11882 28
9506 11881 11883 28
9507 11881 11884 28
9508 11881 11885 28
9509 11886 11887 28
9510 11886 11888 28
9511 11886 11889 28
9512 11886 11890 28
9513 11891 11892 28
9514 11891 11893 28
9515 11891 11894 28
9516 11891 11895 28
9517 11896 11897 28
9518 11896 11898 28
9519 11896 11899 28
9520 11896 11900 28
9521 11901 11902 28
9522 11901 11903 28
9523 11901 11904 28
9524 11901 11905 28
9525 11906 11907 28
9526 11906 11908 28
9527 11906 11909 28
9528 11906 11910 28
9529 11911 11912 28
9530 11911 11913 28
9531 11911 11914 28
9532 11911 11915 28
9533 11916 11917 28
9534 11916 11918 28
9535 11916 11919 28
9536 11916 11920 28
9537 11921 11922 28
9538 11921 11923 28
9539 11921 11924 28
9540 11921 11925 28
9541 11926 11927 28
9542 11926 11928 28
9543 11926 11929 28
9544 11926 11930 28
9545 11931 11932 28
9546 11931 11933 28
9547 11931 11934 28
9548 11931 11935 28
9549 11936 11937 28
9550 11936 11938 28
9551 11936 11939 28
9552 11936 11940 28
9553 11941 11942 28
9554 11941 11943 28
9555 11941 11944 28
9556 11941 11945 28
9557 11946 11947 28
9558 11946 11948 28
9559 11946 11949 28
9560 11946 11950 28
9561 11951 11952 28
9562 11951 11953 28
9563 11951 11954 28
9564 11951 11955 28
9565 11956 11957 28
9566 11956 11958 28
9567 11956 11959 28
9568 11956 11960 28
9569 11961 11962 28
9570 11961 11963 28
9571 11961 11964 28
9572 11961 11965 28
9573 11966 11967 28
9574 11966 11968 28
9575 11966 11969 28
9576 11966 11970 28
9577 11971 11972 28
9578 11971 11973 28
9579 11971 11974 28
9580 11971 11975 28
9581 11976 11977 28
9582 11976 11978 28
9583 11976 11979 28
9584 11976 11980 28
9585 11981 11982 28
9586 11981 11983 28
9587 11981 11984 28
9588 11981 11985 28
9589 11986 11987 28
9590 11986 11988 28
9591 11986 11989 28
9592 11986 11990 28
9593 11991 11992 28
9594 11991 11993 28
9595 11991 11994 28
9596 11991 11995 28
9597 11996 11997 28
9598 11996 11998 28
9599 11996 11999 28
9600 11996 12000 28
9601 12001 12002 28
9602 12001 12003 28
9603 12001 12004 28
9604 12001 12005 28
9605 12006 12007 28
9606 12006 12008 28
9607 12006 12009 28
9608 12006 12010 28
9609 12011 12012 28
9610 12011 12013 28
9611 12011 12014 28
9612 12011 12015 28
9613 12016 12017 28
9614 12016 12018 28
9615 12016 12019 28
9616 12016 12020 28
9617 12021 12022 28
9618 12021 12023 28
9619 12021 12024 28
9620 12021 12025 28
9621 12026 12027 28
9622 12026 12028 28
9623 12026 12029 28
9624 12026 12030 28
9625 12031 12032 28
9626 12031 12033 28
9627 12031 12034 28
9628 12031 12035 28
9629 12036 12037 28
9630 12036 12038 28
9631 12036 12039 28
9632 12036 12040 28
9633 12041 12042 28
9634 12041 12043 28
9635 12041 12044 28
9636 12041 12045 28
9637 12046 12047 28
9638 12046 12048 28
9639 12046 12049 28
9640 12046 12050 28
9641 12051 12052 28
9642 12051 12053 28
9643 12051 12054 28
9644 12051 12055 28
9645 12056 12057 28
9646 12056 12058 28
9647 12056 12059 28
9648 12056 12060 28
9649 12061 12062 28
9650 12061 12063 28
9651 12061 12064 28
9652 12061 12065 28
9653 12066 12067 28
9654 12066 12068 28
9655 12066 12069 28
9656 12066 12070 28
9657 12071 12072 28
9658 12071 12073 28
9659 12071 12074 28
9660 12071 12075 28
9661 12076 12077 28
9662 12076 12078 28
9663 12076 12079 28
9664 12076 12080 28
9665 12081 12082 28
9666 12081 12083 28
9667 12081 12084 28
9668 12081 12085 28
9669 12086 12087 28
9670 12086 12088 28
9671 12086 12089 28
9672 12086 12090 28
9673 12091 12092 28
9674 12091 12093 28
9675 12091 12094 28
9676 12091 12095 28
9677 12096 12097 28
9678 12096 12098 28
9679 12096 12099 28
9680 12096 12100 28
9681 12101 12102 28
9682 12101 12103 28
9683 12101 12104 28
9684 12101 12105 28
9685 12106 12107 28
9686 12106 12108 28
9687 12106 12109 28
9688 12106 12110 28
9689 12111 12112 28
9690 12111 12113 28
9691 12111 12114 28
9692 12111 12115 28
9693 12116 12117 28
9694 12116 12118 28
9695 12116 12119 28
9696 12116 12120 28
9697 12121 12122 28
9698 12121 12123 28
9699 12121 12124 28
9700 12121 12125 28
9701 12126 12127 28
9702 12126 12128 28
9703 12126 12129 28
9704 12126 12130 28
9705 12131 12132 28
9706 12131 12133 28
9707 12131 12134 28
9708 12131 12135 28
9709 12136 12137 28
9710 12136 12138 28
9711 12136 12139 28
9712 12136 12140 28
9713 12141 12142 28
9714 12141 12143 28
9715 12141 12144 28
9716 12141 12145 28
9717 12146 12147 28
9718 12146 12148 28
9719 12146 12149 28
9720 12146 12150 28
9721 12151 12152 28
9722 12151 12153 28
9723 12151 12154 28
9724 12151 12155 28
9725 12156 12157 28
9726 12156 12158 28
9727 12156 12159 28
9728 12156 12160 28
9729 12161 12162 28
9730 12161 12163 28
9731 12161 12164 28
9732 12161 12165 28
9733 12166 12167 28
9734 12166 12168 28
9735 12166 12169 28
9736 12166 12170 28
9737 12171 12172 28
9738 12171 12173 28
9739 12171 12174 28
9740 12171 12175 28
9741 12176 12177 28
9742 12176 12178 28
9743 12176 12179 28
9744 12176 12180 28
9745 12181 12182 28
9746 12181 12183 28
9747 12181 12184 28
9748 12181 12185 28
9749 12186 12187 28
9750 12186 12188 28
9751 12186 12189 28
9752 12186 12190 28
9753 12191 12192 28
9754 12191 12193 28
9755 12191 12194 28
9756 12191 12195 28
9757 12196 12197 28
9758 12196 12198 28
9759 12196 12199 28
9760 12196 12200 28
9761 12201 12202 28
9762 12201 12203 28
9763 12201 12204 28
9764 12201 12205 28
9765 12206 12207 28
9766 12206 12208 28
9767 12206 12209 28
9768 12206 12210 28
9769 12211 12212 28
9770 12211 12213 28
9771 12211 12214 28
9772 12211 12215 28
9773 12216 12217 28
9774 12216 12218 28
9775 12216 12219 28
9776 12216 12220 28
9777 12221 12222 28
9778 12221 12223 28
9779 12221 12224 28
9780 12221 12225 28
9781 12226 12227 28
9782 12226 12228 28
9783 12226 12229 28
9784 12226 12230 28
9785 12231 12232 28
9786 12231 12233 28
9787 12231 12234 28
9788 12231 12235 28
9789 12236 12237 28
9790 12236 12238 28
9791 12236 12239 28
9792 12236 12240 28
9793 12241 12242 28
9794 12241 12243 28
9795 12241 12244 28
9796 12241 12245 28
9797 12246 12247 28
9798 12246 12248 28
9799 12246 12249 28
9800 12246 12250 28
9801 12251 12252 28
9802 12251 12253 28
9803 12251 12254 28
9804 12251 12255 28
9805 12256 12257 28
9806 12256 12258 28
9807 12256 12259 28
9808 12256 12260 28
9809 12261 12262 28
9810 12261 12263 28
9811 12261 12264 28
9812 12261 12265 28
9813 12266 12267 28
9814 12266 12268 28
9815 12266 12269 28
9816 12266 12270 28
9817 12271 12272 28
9818 12271 12273 28
9819 12271 12274 28
9820 12271 12275 28
9821 12276 12277 28
9822 12276 12278 28
9823 12276 12279 28
9824 12276 12280 28
9825 12281 12282 28
9826 12281 12283 28
9827 12281 12284 28
9828 12281 12285 28
9829 12286 12287 28
9830 12286 12288 28
9831 12286 12289 28
9832 12286 12290 28
9833 12291 12292 28
9834 12291 12293 28
9835 12291 12294 28
9836 12291 12295 28
9837 12296 12297 28
9838 12296 12298 28
9839 12296 12299 28
9840 12296 12300 28
9841 12301 12302 28
9842 12301 12303 28
9843 12301 12304 28
9844 12301 12305 28
9845 12306 12307 28
9846 12306 12308 28
9847 12306 12309 28
9848 12306 12310 28
9849 12311 12312 28
9850 12311 12313 28
9851 12311 12314 28
9852 12311 12315 28
9853 12316 12317 28
9854 12316 12318 28
9855 12316 12319 28
9856 12316 12320 28
9857 12321 12322 28
9858 12321 12323 28
9859 12321 12324 28
9860 12321 12325 28
9861 12326 12327 28
9862 12326 12328 28
9863 12326 12329 28
9864 12326 12330 28
9865 12331 12332 28
9866 12331 12333 28
9867 12331 12334 28
9868 12331 12335 28
9869 12336 12337 28
9870 12336 12338 28
9871 12336 12339 28
9872 12336 12340 28
9873 12341 12342 28
9874 12341 12343 28
9875 12341 12344 28
9876 12341 12345 28
9877 12346 12347 28
9878 12346 12348 28
9879 12346 12349 28
9880 12346 12350 28
9881 12351 12352 28
9882 12351 12353 28
9883 12351 12354 28
9884 12351 12355 28
9885 12356 12357 28
9886 12356 12358 28
9887 12356 12359 28
9888 12356 12360 28
9889 12361 12362 28
9890 12361 12363 28
9891 12361 12364 28
9892 12361 12365 28
9893 12366 12367 28
9894 12366 12368 28
9895 12366 12369 28
9896 12366 12370 28
9897 12371 12372 28
9898 12371 12373 28
9899 12371 12374 28
9900 12371 12375 28
9901 12376 12377 28
9902 12376 12378 28
9903 12376 12379 28
9904 12376 12380 28
9905 12381 12382 28
9906 12381 12383 28
9907 12381 12384 28
9908 12381 12385 28
9909 12386 12387 28
9910 12386 12388 28
9911 12386 12389 28
9912 12386 12390 28
9913 12391 12392 28
9914 12391 12393 28
9915 12391 12394 28
9916 12391 12395 28
9917 12396 12397 28
9918 12396 12398 28
9919 12396 12399 28
9920 12396 12400 28
9921 12401 12402 28
9922 12401 12403 28
9923 12401 12404 28
9924 12401 12405 28
9925 12406 12407 28
9926 12406 12408 28
9927 12406 12409 28
9928 12406 12410 28
9929 12411 12412 28
9930 12411 12413 28
9931 12411 12414 28
9932 12411 12415 28
9933 12416 12417 28
9934 12416 12418 28
9935 12416 12419 28
9936 12416 12420 28
9937 12421 12422 28
9938 12421 12423 28
9939 12421 12424 28
9940 12421 12425 28
9941 12426 12427 28
9942 12426 12428 28
9943 12426 12429 28
9944 12426 12430 28
9945 12431 12432 28
9946 12431 12433 28
9947 12431 12434 28
9948 12431 12435 28
9949 12436 12437 28
9950 12436 12438 28
9951 12436 12439 28
9952 12436 12440 28
9953 12441 12442 28
9954 12441 12443 28
9955 12441 12444 28
9956 12441 12445 28
9957 12446 12447 28
9958 12446 12448 28
9959 12446 12449 28
9960 12446 12450 28
9961 12451 12452 28
9962 12451 12453 28
9963 12451 12454 28
9964 12451 12455 28
9965 12456 12457 28
9966 12456 12458 28
9967 12456 12459 28
9968 12456 12460 28
9969 12461 12462 28
9970 12461 12463 28
9971 12461 12464 28
9972 12461 12465 28
9973 12466 12467 28
9974 12466 12468 28
9975 12466 12469 28
9976 12466 12470 28
9977 12471 12472 28
9978 12471 12473 28
9979 12471 12474 28
9980 12471 12475 28
9981 12476 12477 28
9982 12476 12478 28
9983 12476 12479 28
9984 12476 12480 28
9985 12481 12482 28
9986 12481 12483 28
9987 12481 12484 28
9988 12481 12485 28
9989 12486 12487 28
9990 12486 12488 28
9991 12486 12489 28
9992 12486 12490 28
9993 12491 12492 28
9994 12491 12493 28
9995 12491 12494 28
9996 12491 12495 28
9997 12496 12497 28
9998 12496 12498 28
9999 12496 12499 28
10000 12496 12500 28
10001 12501 12502 28
10002 12501 12503 28
10003 12501 12504 28
10004 12501 12505 28
10005 12506 12507 28
10006 12506 12508 28
10007 12506 12509 28
10008 12506 12510 28
10009 12511 12512 28
10010 12511 12513 28
10011 12511 12514 28
10012 12511 12515 28
10013 12516 12517 28
10014 12516 12518 28
10015 12516 12519 28
10016 12516 12520 28
10017 12521 12522 28
10018 12521 12523 28
10019 12521 12524 28
10020 12521 12525 28
10021 12526 12527 28
10022 12526 12528 28
10023 12526 12529 28
10024 12526 12530 28
10025 12531 12532 28
10026 12531 12533 28
10027 12531 12534 28
10028 12531 12535 28
10029 12536 12537 28
10030 12536 12538 28
10031 12536 12539 28
10032 12536 12540 28
10033 12541 12542 28
10034 12541 12543 28
10035 12541 12544 28
10036 12541 12545 28
10037 12546 12547 28
10038 12546 12548 28
10039 12546 12549 28
10040 12546 12550 28
10041 12551 12552 28
10042 12551 12553 28
10043 12551 12554 28
10044 12551 12555 28
10045 12556 12557 28
10046 12556 12558 28
10047 12556 12559 28
10048 12556 12560 28
10049 12561 12562 28
10050 12561 12563 28
10051 12561 12564 28
10052 12561 12565 28
10053 12566 12567 28
10054 12566 12568 28
10055 12566 12569 28
10056 12566 12570 28
10057 12571 12572 28
10058 12571 12573 28
10059 12571 12574 28
10060 12571 12575 28
10061 12576 12577 28
10062 12576 12578 28
10063 12576 12579 28
10064 12576 12580 28
10065 12581 12582 28
10066 12581 12583 28
10067 12581 12584 28
10068 12581 12585 28
10069 12586 12587 28
10070 12586 12588 28
10071 12586 12589 28
10072 12586 12590 28
10073 12591 12592 28
10074 12591 12593 28
10075 12591 12594 28
10076 12591 12595 28
10077 12596 12597 28
10078 12596 12598 28
10079 12596 12599 28
10080 12596 12600 28
10081 12601 12602 28
10082 12601 12603 28
10083 12601 12604 28
10084 12601 12605 28
10085 12606 12607 28
10086 12606 12608 28
10087 12606 12609 28
10088 12606 12610 28
10089 12611 12612 28
10090 12611 12613 28
10091 12611 12614 28
10092 12611 12615 28
10093 12616 12617 28
10094 12616 12618 28
10095 12616 12619 28
10096 12616 12620 28
10097 12621 12622 28
10098 12621 12623 28
10099 12621 12624 28
10100 12621 12625 28
10101 12626 12627 28
10102 12626 12628 28
10103 12626 12629 28
10104 12626 12630 28
10105 12631 12632 28
10106 12631 12633 28
10107 12631 12634 28
10108 12631 12635 28
10109 12636 12637 28
10110 12636 12638 28
10111 12636 12639 28
10112 12636 12640 28
10113 12641 12642 28
10114 12641 12643 28
10115 12641 12644 28
10116 12641 12645 28
10117 12646 12647 28
10118 12646 12648 28
10119 12646 12649 28
10120 12646 12650 28
10121 12651 12652 28
10122 12651 12653 28
10123 12651 12654 28
10124 12651 12655 28
10125 12656 12657 28
10126 12656 12658 28
10127 12656 12659 28
10128 12656 12660 28
10129 12661 12662 28
10130 12661 12663 28
10131 12661 12664 28
10132 12661 12665 28
10133 12666 12667 28
10134 12666 12668 28
10135 12666 12669 28
10136 12666 12670 28
10137 12671 12672 28
10138 12671 12673 28
10139 12671 12674 28
10140 12671 12675 28
10141 12676 12677 28
10142 12676 12678 28
10143 12676 12679 28
10144 12676 12680 28
10145 12681 12682 28
10146 12681 12683 28
10147 12681 12684 28
10148 12681 12685 28
10149 12686 12687 28
10150 12686 12688 28
10151 12686 12689 28
10152 12686 12690 28
10153 12691 12692 28
10154 12691 12693 28
10155 12691 12694 28
10156 12691 12695 28
10157 12696 12697 28
10158 12696 12698 28
10159 12696 12699 28
10160 12696 12700 28
10161 12701 12702 28
10162 12701 12703 28
10163 12701 12704 28
10164 12701 12705 28
10165 12706 12707 28
10166 12706 12708 28
10167 12706 12709 28
10168 12706 12710 28
10169 12711 12712 28
10170 12711 12713 28
10171 12711 12714 28
10172 12711 12715 28
10173 12716 12717 28
10174 12716 12718 28
10175 12716 12719 28
10176 12716 12720 28
10177 12721 12722 28
10178 12721 12723 28
10179 12721 12724 28
10180 12721 12725 28
10181 12726 12727 28
10182 12726 12728 28
10183 12726 12729 28
10184 12726 12730 28
10185 12731 12732 28
10186 12731 12733 28
10187 12731 12734 28
10188 12731 12735 28
10189 12736 12737 28
10190 12736 12738 28
10191 12736 12739 28
10192 12736 12740 28
10193 12741 12742 28
10194 12741 12743 28
10195 12741 12744 28
10196 12741 12745 28
10197 12746 12747 28
10198 12746 12748 28
10199 12746 12749 28
10200 12746 12750 28
10201 12751 12752 28
10202 12751 12753 28
10203 12751 12754 28
10204 12751 12755 28
10205 12756 12757 28
10206 12756 12758 28
10207 12756 12759 28
10208 12756 12760 28
10209 12761 12762 28
10210 12761 12763 28
10211 12761 12764 28
10212 12761 12765 28
10213 12766 12767 28
10214 12766 12768 28
10215 12766 12769 28
10216 12766 12770 28
10217 12771 12772 28
10218 12771 12773 28
10219 12771 12774 28
10220 12771 12775 28
10221 12776 12777 28
10222 12776 12778 28
10223 12776 12779 28
10224 12776 12780 28
10225 12781 12782 28
10226 12781 12783 28
10227 12781 12784 28
10228 12781 12785 28
10229 12786 12787 28
10230 12786 12788 28
10231 12786 12789 28
10232 12786 12790 28
10233 12791 12792 28
10234 12791 12793 28
10235 12791 12794 28
10236 12791 12795 28
10237 12796 12797 28
10238 12796 12798 28
10239 12796 12799 28
10240 12796 12800 28
10241 12801 12802 28
10242 12801 12803 28
10243 12801 12804 28
10244 12801 12805 28
10245 12806 12807 28
10246 12806 12808 28
10247 12806 12809 28
10248 12806 12810 28
10249 12811 12812 28
10250 12811 12813 28
10251 12811 12814 28
10252 12811 12815 28
10253 12816 12817 28
10254 12816 12818 28
10255 12816 12819 28
10256 12816 12820 28
10257 12821 12822 28
10258 12821 12823 28
10259 12821 12824 28
10260 12821 12825 28
10261 12826 12827 28
10262 12826 12828 28
10263 12826 12829 28
10264 12826 12830 28
10265 12831 12832 28
10266 12831 12833 28
10267 12831 12834 28
10268 12831 12835 28
10269 12836 12837 28
10270 12836 12838 28
10271 12836 12839 28
10272 12836 12840 28
10273 12841 12842 28
10274 12841 12843 28
10275 12841 12844 28
10276 12841 12845 28
10277 12846 12847 28
10278 12846 12848 28
10279 12846 12849 28
10280 12846 12850 28
10281 12851 12852 28
10282 12851 12853 28
10283 12851 12854 28
10284 12851 12855 28
10285 12856 12857 28
10286 12856 12858 28
10287 12856 12859 28
10288 12856 12860 28
10289 12861 12862 28
10290 12861 12863 28
10291 12861 12864 28
10292 12861 12865 28
10293 12866 12867 28
10294 12866 12868 28
10295 12866 12869 28
10296 12866 12870 28
10297 12871 12872 28
10298 12871 12873 28
10299 12871 12874 28
10300 12871 12875 28
10301 12876 12877 28
10302 12876 12878 28
10303 12876 12879 28
10304 12876 12880 28
10305 12881 12882 28
10306 12881 12883 28
10307 12881 12884 28
10308 12881 12885 28
10309 12886 12887 28
10310 12886 12888 28
10311 12886 12889 28
10312 12886 12890 28
10313 12891 12892 28
10314 12891 12893 28
10315 12891 12894 28
10316 12891 12895 28
10317 12896 12897 28
10318 12896 12898 28
10319 12896 12899 28
10320 12896 12900 28
10321 12901 12902 28
10322 12901 12903 28
10323 12901 12904 28
10324 12901 12905 28
10325 12906 12907 28
10326 12906 12908 28
10327 12906 12909 28
10328 12906 12910 28
10329 12911 12912 28
10330 12911 12913 28
10331 12911 12914 28
10332 12911 12915 28
10333 12916 12917 28
10334 12916 12918 28
10335 12916 12919 28
10336 12916 12920 28
10337 12921 12922 28
10338 12921 12923 28
10339 12921 12924 28
10340 12921 12925 28
10341 12926 12927 28
10342 12926 12928 28
10343 12926 12929 28
10344 12926 12930 28
10345 12931 12932 28
10346 12931 12933 28
10347 12931 12934 28
10348 12931 12935 28
10349 12936 12937 28
10350 12936 12938 28
10351 12936 12939 28
10352 12936 12940 28
10353 12941 12942 28
10354 12941 12943 28
10355 12941 12944 28
10356 12941 12945 28
10357 12946 12947 28
10358 12946 12948 28
10359 12946 12949 28
10360 12946 12950 28
10361 12951 12952 28
10362 12951 12953 28
10363 12951 12954 28
10364 12951 12955 28
10365 12956 12957 28
10366 12956 12958 28
10367 12956 12959 28
10368 12956 12960 28
10369 12961 12962 28
10370 12961 12963 28
10371 12961 12964 28
10372 12961 12965 28
10373 12966 12967 28
10374 12966 12968 28
10375 12966 12969 28
10376 12966 12970 28
10377 12971 12972 28
10378 12971 12973 28
10379 12971 12974 28
10380 12971 12975 28
10381 12976 12977 28
10382 12976 12978 28
10383 12976 12979 28
10384 12976 12980 28
10385 12981 12982 28
10386 12981 12983 28
10387 12981 12984 28
10388 12981 12985 28
10389 12986 12987 28
10390 12986 12988 28
10391 12986 12989 28
10392 12986 12990 28
10393 12991 12992 28
10394 12991 12993 28
10395 12991 12994 28
10396 12991 12995 28
10397 12996 12997 28
10398 12996 12998 28
10399 12996 12999 28
10400 12996 13000 28
10401 13001 13002 28
10402 13001 13003 28
10403 13001 13004 28
10404 13001 13005 28
10405 13006 13007 28
10406 13006 13008 28
10407 13006 13009 28
10408 13006 13010 28
10409 13011 13012 28
10410 13011 13013 28
10411 13011 13014 28
10412 13011 13015 28
10413 13016 13017 28
10414 13016 13018 28
10415 13016 13019 28
10416 13016 13020 28
10417 13021 13022 28
10418 13021 13023 28
10419 13021 13024 28
10420 13021 13025 28
10421 13026 13027 28
10422 13026 13028 28
10423 13026 13029 28
10424 13026 13030 28
10425 13031 13032 28
10426 13031 13033 28
10427 13031 13034 28
10428 13031 13035 28
10429 13036 13037 28
10430 13036 13038 28
10431 13036 13039 28
10432 13036 13040 28
10433 13041 13042 28
10434 13041 13043 28
10435 13041 13044 28
10436 13041 13045 28
10437 13046 13047 28
10438 13046 13048 28
10439 13046 13049 28
10440 13046 13050 28
10441 13051 13052 28
10442 13051 13053 28
10443 13051 13054 28
10444 13051 13055 28
10445 13056 13057 28
10446 13056 13058 28
10447 13056 13059 28
10448 13056 13060 28
10449 13061 13062 28
10450 13061 13063 28
10451 13061 13064 28
10452 13061 13065 28
10453 13066 13067 28
10454 13066 13068 28
10455 13066 13069 28
10456 13066 13070 28
10457 13071 13072 28
10458 13071 13073 28
10459 13071 13074 28
10460 13071 13075 28
10461 13076 13077 28
10462 13076 13078 28
10463 13076 13079 28
10464 13076 13080 28
10465 13081 13082 28
10466 13081 13083 28
10467 13081 13084 28
10468 13081 13085 28
10469 13086 13087 28
10470 13086 13088 28
10471 13086 13089 28
10472 13086 13090 28
10473 13091 13092 28
10474 13091 13093 28
10475 13091 13094 28
10476 13091 13095 28
10477 13096 13097 28
10478 13096 13098 28
10479 13096 13099 28
10480 13096 13100 28
10481 13101 13102 28
10482 13101 13103 28
10483 13101 13104 28
10484 13101 13105 28
10485 13106 13107 28
10486 13106 13108 28
10487 13106 13109 28
10488 13106 13110 28
10489 13111 13112 28
10490 13111 13113 28
10491 13111 13114 28
10492 13111 13115 28
10493 13116 13117 28
10494 13116 13118 28
10495 13116 13119 28
10496 13116 13120 28
10497 13121 13122 28
10498 13121 13123 28
10499 13121 13124 28
10500 13121 13125 28
10501 13126 13127 28
10502 13126 13128 28
10503 13126 13129 28
10504 13126 13130 28
10505 13131 13132 28
10506 13131 13133 28
10507 13131 13134 28
10508 13131 13135 28
10509 13136 13137 28
10510 13136 13138 28
10511 13136 13139 28
10512 13136 13140 28
10513 13141 13142 28
10514 13141 13143 28
10515 13141 13144 28
10516 13141 13145 28
10517 13146 13147 28
10518 13146 13148 28
10519 13146 13149 28
10520 13146 13150 28
10521 13151 13152 28
10522 13151 13153 28
10523 13151 13154 28
10524 13151 13155 28
10525 13156 13157 28
10526 13156 13158 28
10527 13156 13159 28
10528 13156 13160 28
10529 13161 13162 28
10530 13161 13163 28
10531 13161 13164 28
10532 13161 13165 28
10533 13166 13167 28
10534 13166 13168 28
10535 13166 13169 28
10536 13166 13170 28
10537 13171 13172 28
10538 13171 13173 28
10539 13171 13174 28
10540 13171 13175 28
10541 13176 13177 28
10542 13176 13178 28
10543 13176 13179 28
10544 13176 13180 28
10545 13181 13182 28
10546 13181 13183 28
10547 13181 13184 28
10548 13181 13185 28
10549 13186 13187 28
10550 13186 13188 28
10551 13186 13189 28
10552 13186 13190 28
10553 13191 13192 28
10554 13191 13193 28
10555 13191 13194 28
10556 13191 13195 28
10557 13196 13197 28
10558 13196 13198 28
10559 13196 13199 28
10560 13196 13200 28
10561 13201 13202 28
10562 13201 13203 28
10563 13201 13204 28
10564 13201 13205 28
10565 13206 13207 28
10566 13206 13208 28
10567 13206 13209 28
10568 13206 13210 28
10569 13211 13212 28
10570 13211 13213 28
10571 13211 13214 28
10572 13211 13215 28
10573 13216 13217 28
10574 13216 13218 28
10575 13216 13219 28
10576 13216 13220 28
10577 13221 13222 28
10578 13221 13223 28
10579 13221 13224 28
10580 13221 13225 28
10581 13226 13227 28
10582 13226 13228 28
10583 13226 13229 28
10584 13226 13230 28
10585 13231 13232 28
10586 13231 13233 28
10587 13231 13234 28
10588 13231 13235 28
10589 13236 13237 28
10590 13236 13238 28
10591 13236 13239 28
10592 13236 13240 28
10593 13241 13242 28
10594 13241 13243 28
10595 13241 13244 28
10596 13241 13245 28
10597 13246 13247 28
10598 13246 13248 28
10599 13246 13249 28
10600 13246 13250 28
10601 13251 13252 28
10602 13251 13253 28
10603 13251 13254 28
10604 13251 13255 28
10605 13256 13257 28
10606 13256 13258 28
10607 13256 13259 28
10608 13256 13260 28
10609 13261 13262 28
10610 13261 13263 28
10611 13261 13264 28
10612 13261 13265 28
10613 13266 13267 28
10614 13266 13268 28
10615 13266 13269 28
10616 13266 13270 28
10617 13271 13272 28
10618 13271 13273 28
10619 13271 13274 28
10620 13271 13275 28
10621 13276 13277 28
10622 13276 13278 28
10623 13276 13279 28
10624 13276 13280 28
10625 13281 13282 28
10626 13281 13283 28
10627 13281 13284 28
10628 13281 13285 28
10629 13286 13287 28
10630 13286 13288 28
10631 13286 13289 28
10632 13286 13290 28
10633 13291 13292 28
10634 13291 13293 28
10635 13291 13294 28
10636 13291 13295 28
10637 13296 13297 28
10638 13296 13298 28
10639 13296 13299 28
10640 13296 13300 28
10641 13301 13302 28
10642 13301 13303 28
10643 13301 13304 28
10644 13301 13305 28
10645 13306 13307 28
10646 13306 13308 28
10647 13306 13309 28
10648 13306 13310 28
10649 13311 13312 28
10650 13311 13313 28
10651 13311 13314 28
10652 13311 13315 28
10653 13316 13317 28
10654 13316 13318 28
10655 13316 13319 28
10656 13316 13320 28
10657 13321 13322 28
10658 13321 13323 28
10659 13321 13324 28
10660 13321 13325 28
10661 13326 13327 28
10662 13326 13328 28
10663 13326 13329 28
10664 13326 13330 28
10665 13331 13332 28
10666 13331 13333 28
10667 13331 13334 28
10668 13331 13335 28
10669 13336 13337 28
10670 13336 13338 28
10671 13336 13339 28
10672 13336 13340 28
10673 13341 13342 28
10674 13341 13343 28
10675 13341 13344 28
10676 13341 13345 28
10677 13346 13347 28
10678 13346 13348 28
10679 13346 13349 28
10680 13346 13350 28
10681 13351 13352 28
10682 13351 13353 28
10683 13351 13354 28
10684 13351 13355 28
10685 13356 13357 28
10686 13356 13358 28
10687 13356 13359 28
10688 13356 13360 28
10689 13361 13362 28
10690 13361 13363 28
10691 13361 13364 28
10692 13361 13365 28
10693 13366 13367 28
10694 13366 13368 28
10695 13366 13369 28
10696 13366 13370 28
10697 13371 13372 28
10698 13371 13373 28
10699 13371 13374 28
10700 13371 13375 28
10701 13376 13377 28
10702 13376 13378 28
10703 13376 13379 28
10704 13376 13380 28
10705 13381 13382 28
10706 13381 13383 28
10707 13381 13384 28
10708 13381 13385 28
10709 13386 13387 28
10710 13386 13388 28
10711 13386 13389 28
10712 13386 13390 28
10713 13391 13392 28
10714 13391 13393 28
10715 13391 13394 28
10716 13391 13395 28
10717 13396 13397 28
10718 13396 13398 28
10719 13396 13399 28
10720 13396 13400 28
10721 13401 13402 28
10722 13401 13403 28
10723 13401 13404 28
10724 13401 13405 28
10725 13406 13407 28
10726 13406 13408 28
10727 13406 13409 28
10728 13406 13410 28
10729 13411 13412 28
10730 13411 13413 28
10731 13411 13414 28
10732 13411 13415 28
10733 13416 13417 28
10734 13416 13418 28
10735 13416 13419 28
10736 13416 13420 28
10737 13421 13422 28
10738 13421 13423 28
10739 13421 13424 28
10740 13421 13425 28
10741 13426 13427 28
10742 13426 13428 28
10743 13426 13429 28
10744 13426 13430 28
10745 13431 13432 28
10746 13431 13433 28
10747 13431 13434 28
10748 13431 13435 28
10749 13436 13437 28
10750 13436 13438 28
10751 13436 13439 28
10752 13436 13440 28
10753 13441 13442 28
10754 13441 13443 28
10755 13441 13444 28
10756 13441 13445 28
10757 13446 13447 28
10758 13446 13448 28
10759 13446 13449 28
10760 13446 13450 28
10761 13451 13452 28
10762 13451 13453 28
10763 13451 13454 28
10764 13451 13455 28
10765 13456 13457 28
10766 13456 13458 28
10767 13456 13459 28
10768 13456 13460 28
10769 13461 13462 28
10770 13461 13463 28
10771 13461 13464 28
10772 13461 13465 28
10773 13466 13467 28
10774 13466 13468 28
10775 13466 13469 28
10776 13466 13470 28
10777 13471 13472 28
10778 13471 13473 28
10779 13471 13474 28
10780 13471 13475 28
10781 13476 13477 28
10782 13476 13478 28
10783 13476 13479 28
10784 13476 13480 28
10785 13481 13482 28
10786 13481 13483 28
10787 13481 13484 28
10788 13481 13485 28
10789 13486 13487 28
10790 13486 13488 28
10791 13486 13489 28
10792 13486 13490 28
10793 13491 13492 28
10794 13491 13493 28
10795 13491 13494 28
10796 13491 13495 28
10797 13496 13497 28
10798 13496 13498 28
10799 13496 13499 28
10800 13496 13500 28
10801 13501 13502 28
10802 13501 13503 28
10803 13501 13504 28
10804 13501 13505 28
10805 13506 13507 28
10806 13506 13508 28
10807 13506 13509 28
10808 13506 13510 28
10809 13511 13512 28
10810 13511 13513 28
10811 13511 13514 28
10812 13511 13515 28
10813 13516 13517 28
10814 13516 13518 28
10815 13516 13519 28
10816 13516 13520 28
10817 13521 13522 28
10818 13521 13523 28
10819 13521 13524 28
10820 13521 13525 28
10821 13526 13527 28
10822 13526 13528 28
10823 13526 13529 28
10824 13526 13530 28
10825 13531 13532 28
10826 13531 13533 28
10827 13531 13534 28
10828 13531 13535 28
10829 13536 13537 28
10830 13536 13538 28
10831 13536 13539 28
10832 13536 13540 28
10833 13541 13542 28
10834 13541 13543 28
10835 13541 13544 28
10836 13541 13545 28
10837 13546 13547 28
10838 13546 13548 28
10839 13546 13549 28
10840 13546 13550 28
10841 13551 13552 28
10842 13551 13553 28
10843 13551 13554 28
10844 13551 13555 28
10845 13556 13557 28
10846 13556 13558 28
10847 13556 13559 28
10848 13556 13560 28
10849 13561 13562 28
10850 13561 13563 28
10851 13561 13564 28
10852 13561 13565 28
10853 13566 13567 28
10854 13566 13568 28
10855 13566 13569 28
10856 13566 13570 28
10857 13571 13572 28
10858 13571 13573 28
10859 13571 13574 28
10860 13571 13575 28
10861 13576 13577 28
10862 13576 13578 28
10863 13576 13579 28
10864 13576 13580 28
10865 13581 13582 28
10866 13581 13583 28
10867 13581 13584 28
10868 13581 13585 28
10869 13586 13587 28
10870 13586 13588 28
10871 13586 13589 28
10872 13586 13590 28
10873 13591 13592 28
10874 13591 13593 28
10875 13591 13594 28
10876 13591 13595 28
10877 13596 13597 28
10878 13596 13598 28
10879 13596 13599 28
10880 13596 13600 28
10881 13601 13602 28
10882 13601 13603 28
10883 13601 13604 28
10884 13601 13605 28
10885 13606 13607 28
10886 13606 13608 28
10887 13606 13609 28
10888 13606 13610 28
10889 13611 13612 28
10890 13611 13613 28
10891 13611 13614 28
10892 13611 13615 28
10893 13616 13617 28
10894 13616 13618 28
10895 13616 13619 28
10896 13616 13620 28
10897 13621 13622 28
10898 13621 13623 28
10899 13621 13624 28
10900 13621 13625 28
10901 13626 13627 28
10902 13626 13628 28
10903 13626 13629 28
10904 13626 13630 28
10905 13631 13632 28
10906 13631 13633 28
10907 13631 13634 28
10908 13631 13635 28
10909 13636 13637 28
10910 13636 13638 28
10911 13636 13639 28
10912 13636 13640 28
10913 13641 13642 28
10914 13641 13643 28
10915 13641 13644 28
10916 13641 13645 28
10917 13646 13647 28
10918 13646 13648 28
10919 13646 13649 28
10920 13646 13650 28
10921 13651 13652 28
10922 13651 13653 28
10923 13651 13654 28
10924 13651 13655 28
10925 13656 13657 28
10926 13656 13658 28
10927 13656 13659 28
10928 13656 13660 28
10929 13661 13662 28
10930 13661 13663 28
10931 13661 13664 28
10932 13661 13665 28
10933 13666 13667 28
10934 13666 13668 28
10935 13666 13669 28
10936 13666 13670 28
10937 13671 13672 28
10938 13671 13673 28
10939 13671 13674 28
10940 13671 13675 28
10941 13676 13677 28
10942 13676 13678 28
10943 13676 13679 28
10944 13676 13680 28
10945 13681 13682 28
10946 13681 13683 28
10947 13681 13684 28
10948 13681 13685 28
10949 13686 13687 28
10950 13686 13688 28
10951 13686 13689 28
10952 13686 13690 28
10953 13691 13692 28
10954 13691 13693 28
10955 13691 13694 28
10956 13691 13695 28
10957 13696 13697 28
10958 13696 13698 28
10959 13696 13699 28
10960 13696 13700 28
10961 13701 13702 28
10962 13701 13703 28
10963 13701 13704 28
10964 13701 13705 28
10965 13706 13707 28
10966 13706 13708 28
10967 13706 13709 28
10968 13706 13710 28
10969 13711 13712 28
10970 13711 13713 28
10971 13711 13714 28
10972 13711 13715 28
10973 13716 13717 28
10974 13716 13718 28
10975 13716 13719 28
10976 13716 13720 28
10977 13721 13722 28
10978 13721 13723 28
10979 13721 13724 28
10980 13721 13725 28
10981 13726 13727 28
10982 13726 13728 28
10983 13726 13729 28
10984 13726 13730 28
10985 13731 13732 28
10986 13731 13733 28
10987 13731 13734 28
10988 13731 13735 28
10989 13736 13737 28
10990 13736 13738 28
10991 13736 13739 28
10992 13736 13740 28
10993 13741 13742 28
10994 13741 13743 28
10995 13741 13744 28
10996 13741 13745 28
10997 13746 13747 28
10998 13746 13748 28
10999 13746 13749 28
11000 13746 13750 28
11001 13751 13752 28
11002 13751 13753 28
11003 13751 13754 28
11004 13751 13755 28
11005 13756 13757 28
11006 13756 13758 28
11007 13756 13759 28
11008 13756 13760 28
11009 13761 13762 28
11010 13761 13763 28
11011 13761 13764 28
11012 13761 13765 28
11013 13766 13767 28
11014 13766 13768 28
11015 13766 13769 28
11016 13766 13770 28
11017 13771 13772 28
11018 13771 13773 28
11019 13771 13774 28
11020 13771 13775 28
11021 13776 13777 28
11022 13776 13778 28
11023 13776 13779 28
11024 13776 13780 28
11025 13781 13782 28
11026 13781 13783 28
11027 13781 13784 28
11028 13781 13785 28
11029 13786 13787 28
11030 13786 13788 28
11031 13786 13789 28
11032 13786 13790 28
11033 13791 13792 28
11034 13791 13793 28
11035 13791 13794 28
11036 13791 13795 28
11037 13796 13797 28
11038 13796 13798 28
11039 13796 13799 28
11040 13796 13800 28
11041 13801 13802 28
11042 13801 13803 28
11043 13801 13804 28
11044 13801 13805 28
11045 13806 13807 28
11046 13806 13808 28
11047 13806 13809 28
11048 13806 13810 28
11049 13811 13812 28
11050 13811 13813 28
11051 13811 13814 28
11052 13811 13815 28
11053 13816 13817 28
11054 13816 13818 28
11055 13816 13819 28
11056 13816 13820 28
11057 13821 13822 28
11058 13821 13823 28
11059 13821 13824 28
11060 13821 13825 28
11061 13826 13827 28
11062 13826 13828 28
11063 13826 13829 28
11064 13826 13830 28
11065 13831 13832 28
11066 13831 13833 28
11067 13831 13834 28
11068 13831 13835 28
11069 13836 13837 28
11070 13836 13838 28
11071 13836 13839 28
11072 13836 13840 28
11073 13841 13842 28
11074 13841 13843 28
11075 13841 13844 28
11076 13841 13845 28
11077 13846 13847 28
11078 13846 13848 28
11079 13846 13849 28
11080 13846 13850 28
11081 13851 13852 28
11082 13851 13853 28
11083 13851 13854 28
11084 13851 13855 28
11085 13856 13857 28
11086 13856 13858 28
11087 13856 13859 28
11088 13856 13860 28
11089 13861 13862 28
11090 13861 13863 28
11091 13861 13864 28
11092 13861 13865 28
11093 13866 13867 28
11094 13866 13868 28
11095 13866 13869 28
11096 13866 13870 28
11097 13871 13872 28
11098 13871 13873 28
11099 13871 13874 28
11100 13871 13875 28
11101 13876 13877 28
11102 13876 13878 28
11103 13876 13879 28
11104 13876 13880 28
11105 13881 13882 28
11106 13881 13883 28
11107 13881 13884 28
11108 13881 13885 28
11109 13886 13887 28
11110 13886 13888 28
11111 13886 13889 28
11112 13886 13890 28
11113 13891 13892 28
11114 13891 13893 28
11115 13891 13894 28
11116 13891 13895 28
11117 13896 13897 28
11118 13896 13898 28
11119 13896 13899 28
11120 13896 13900 28
11121 13901 13902 28
11122 13901 13903 28
11123 13901 13904 28
11124 13901 13905 28
11125 13906 13907 28
11126 13906 13908 28
11127 13906 13909 28
11128 13906 13910 28
11129 13911 13912 28
11130 13911 13913 28
11131 13911 13914 28
11132 13911 13915 28
11133 13916 13917 28
11134 13916 13918 28
11135 13916 13919 28
11136 13916 13920 28
11137 13921 13922 28
11138 13921 13923 28
11139 13921 13924 28
11140 13921 13925 28
11141 13926 13927 28
11142 13926 13928 28
11143 13926 13929 28
11144 13926 13930 28
11145 13931 13932 28
11146 13931 13933 28
11147 13931 13934 28
11148 13931 13935 28
11149 13936 13937 28
11150 13936 13938 28
11151 13936 13939 28
11152 13936 13940 28
11153 13941 13942 28
11154 13941 13943 28
11155 13941 13944 28
11156 13941 13945 28
11157 13946 13947 28
11158 13946 13948 28
11159 13946 13949 28
11160 13946 13950 28
11161 13951 13952 28
11162 13951 13953 28
11163 13951 13954 28
11164 13951 13955 28
11165 13956 13957 28
11166 13956 13958 28
11167 13956 13959 28
11168 13956 13960 28
11169 13961 13962 28
11170 13961 13963 28
11171 13961 13964 28
11172 13961 13965 28
11173 13966 13967 28
11174 13966 13968 28
11175 13966 13969 28
11176 13966 13970 28
11177 13971 13972 28
11178 13971 13973 28
11179 13971 13974 28
11180 13971 13975 28
11181 13976 13977 28
11182 13976 13978 28
11183 13976 13979 28
11184 13976 13980 28
11185 13981 13982 28
11186 13981 13983 28
11187 13981 13984 28
11188 13981 13985 28
11189 13986 13987 28
11190 13986 13988 28
11191 13986 13989 28
11192 13986 13990 28
11193 13991 13992 28
11194 13991 13993 28
11195 13991 13994 28
11196 13991 13995 28
11197 13996 13997 28
11198 13996 13998 28
11199 13996 13999 28
11200 13996 14000 28
11201 14001 14002 28
11202 14001 14003 28
11203 14001 14004 28
11204 14001 14005 28
11205 14006 14007 28
11206 14006 14008 28
11207 14006 14009 28
11208 14006 14010 28
11209 14011 14012 28
11210 14011 14013 28
11211 14011 14014 28
11212 14011 14015 28
11213 14016 14017 28
11214 14016 14018 28
11215 14016 14019 28
11216 14016 14020 28
11217 14021 14022 28
11218 14021 14023 28
11219 14021 14024 28
11220 14021 14025 28
11221 14026 14027 28
11222 14026 14028 28
11223 14026 14029 28
11224 14026 14030 28
11225 14031 14032 28
11226 14031 14033 28
11227 14031 14034 28
11228 14031 14035 28
11229 14036 14037 28
11230 14036 14038 28
11231 14036 14039 28
11232 14036 14040 28
11233 14041 14042 28
11234 14041 14043 28
11235 14041 14044 28
11236 14041 14045 28
11237 14046 14047 28
11238 14046 14048 28
11239 14046 14049 28
11240 14046 14050 28
11241 14051 14052 28
11242 14051 14053 28
11243 14051 14054 28
11244 14051 14055 28
11245 14056 14057 28
11246 14056 14058 28
11247 14056 14059 28
11248 14056 14060 28
11249 14061 14062 28
11250 14061 14063 28
11251 14061 14064 28
11252 14061 14065 28
11253 14066 14067 28
11254 14066 14068 28
11255 14066 14069 28
11256 14066 14070 28
11257 14071 14072 28
11258 14071 14073 28
11259 14071 14074 28
11260 14071 14075 28
11261 14076 14077 28
11262 14076 14078 28
11263 14076 14079 28
11264 14076 14080 28
11265 14081 14082 28
11266 14081 14083 28
11267 14081 14084 28
11268 14081 14085 28
11269 14086 14087 28
11270 14086 14088 28
11271 14086 14089 28
11272 14086 14090 28
11273 14091 14092 28
11274 14091 14093 28
11275 14091 14094 28
11276 14091 14095 28
11277 14096 14097 28
11278 14096 14098 28
11279 14096 14099 28
11280 14096 14100 28
11281 14101 14102 28
11282 14101 14103 28
11283 14101 14104 28
11284 14101 14105 28
11285 14106 14107 28
11286 14106 14108 28
11287 14106 14109 28
11288 14106 14110 28
11289 14111 14112 28
11290 14111 14113 28
11291 14111 14114 28
11292 14111 14115 28
11293 14116 14117 28
11294 14116 14118 28
11295 14116 14119 28
11296 14116 14120 28
11297 14121 14122 28
11298 14121 14123 28
11299 14121 14124 28
11300 14121 14125 28
11301 14126 14127 28
11302 14126 14128 28
11303 14126 14129 28
11304 14126 14130 28
11305 14131 14132 28
11306 14131 14133 28
11307 14131 14134 28
11308 14131 14135 28
11309 14136 14137 28
11310 14136 14138 28
11311 14136 14139 28
11312 14136 14140 28
11313 14141 14142 28
11314 14141 14143 28
11315 14141 14144 28
11316 14141 14145 28
11317 14146 14147 28
11318 14146 14148 28
11319 14146 14149 28
11320 14146 14150 28
11321 14151 14152 28
11322 14151 14153 28
11323 14151 14154 28
11324 14151 14155 28
11325 14156 14157 28
11326 14156 14158 28
11327 14156 14159 28
11328 14156 14160 28
11329 14161 14162 28
11330 14161 14163 28
11331 14161 14164 28
11332 14161 14165 28
11333 14166 14167 28
11334 14166 14168 28
11335 14166 14169 28
11336 14166 14170 28
11337 14171 14172 28
11338 14171 14173 28
11339 14171 14174 28
11340 14171 14175 28
11341 14176 14177 28
11342 14176 14178 28
11343 14176 14179 28
11344 14176 14180 28
11345 14181 14182 28
11346 14181 14183 28
11347 14181 14184 28
11348 14181 14185 28
11349 14186 14187 28
11350 14186 14188 28
11351 14186 14189 28
11352 14186 14190 28
11353 14191 14192 28
11354 14191 14193 28
11355 14191 14194 28
11356 14191 14195 28
11357 14196 14197 28
11358 14196 14198 28
11359 14196 14199 28
11360 14196 14200 28
11361 14201 14202 28
11362 14201 14203 28
11363 14201 14204 28
11364 14201 14205 28
11365 14206 14207 28
11366 14206 14208 28
11367 14206 14209 28
11368 14206 14210 28
11369 14211 14212 28
11370 14211 14213 28
11371 14211 14214 28
11372 14211 14215 28
11373 14216 14217 28
11374 14216 14218 28
11375 14216 14219 28
11376 14216 14220 28
11377 14221 14222 28
11378 14221 14223 28
11379 14221 14224 28
11380 14221 14225 28
11381 14226 14227 28
11382 14226 14228 28
11383 14226 14229 28
11384 14226 14230 28
11385 14231 14232 28
11386 14231 14233 28
11387 14231 14234 28
11388 14231 14235 28
11389 14236 14237 28
11390 14236 14238 28
11391 14236 14239 28
11392 14236 14240 28
11393 14241 14242 28
11394 14241 14243 28
11395 14241 14244 28
11396 14241 14245 28
11397 14246 14247 28
11398 14246 14248 28
11399 14246 14249 28
11400 14246 14250 28
11401 14251 14252 28
11402 14251 14253 28
11403 14251 14254 28
11404 14251 14255 28
11405 14256 14257 28
11406 14256 14258 28
11407 14256 14259 28
11408 14256 14260 28
11409 14261 14262 28
11410 14261 14263 28
11411 14261 14264 28
11412 14261 14265 28
11413 14266 14267 28
11414 14266 14268 28
11415 14266 14269 28
11416 14266 14270 28
11417 14271 14272 28
11418 14271 14273 28
11419 14271 14274 28
11420 14271 14275 28
11421 14276 14277 28
11422 14276 14278 28
11423 14276 14279 28
11424 14276 14280 28
11425 14281 14282 28
11426 14281 14283 28
11427 14281 14284 28
11428 14281 14285 28
11429 14286 14287 28
11430 14286 14288 28
11431 14286 14289 28
11432 14286 14290 28
11433 14291 14292 28
11434 14291 14293 28
11435 14291 14294 28
11436 14291 14295 28
11437 14296 14297 28
11438 14296 14298 28
11439 14296 14299 28
11440 14296 14300 28
11441 14301 14302 28
11442 14301 14303 28
11443 14301 14304 28
11444 14301 14305 28
11445 14306 14307 28
11446 14306 14308 28
11447 14306 14309 28
11448 14306 14310 28
11449 14311 14312 28
11450 14311 14313 28
11451 14311 14314 28
11452 14311 14315 28
11453 14316 14317 28
11454 14316 14318 28
11455 14316 14319 28
11456 14316 14320 28
11457 14321 14322 28
11458 14321 14323 28
11459 14321 14324 28
11460 14321 14325 28
11461 14326 14327 28
11462 14326 14328 28
11463 14326 14329 28
11464 14326 14330 28
11465 14331 14332 28
11466 14331 14333 28
11467 14331 14334 28
11468 14331 14335 28
11469 14336 14337 28
11470 14336 14338 28
11471 14336 14339 28
11472 14336 14340 28
11473 14341 14342 28
11474 14341 14343 28
11475 14341 14344 28
11476 14341 14345 28
11477 14346 14347 28
11478 14346 14348 28
11479 14346 14349 28
11480 14346 14350 28
11481 14351 14352 28
11482 14351 14353 28
11483 14351 14354 28
11484 14351 14355 28
11485 14356 14357 28
11486 14356 14358 28
11487 14356 14359 28
11488 14356 14360 28
11489 14361 14362 28
11490 14361 14363 28
11491 14361 14364 28
11492 14361 14365 28
11493 14366 14367 28
11494 14366 14368 28
11495 14366 14369 28
11496 14366 14370 28
11497 14371 14372 28
11498 14371 14373 28
11499 14371 14374 28
11500 14371 14375 28
11501 14376 14377 28
11502 14376 14378 28
11503 14376 14379 28
11504 14376 14380 28
11505 14381 14382 28
11506 14381 14383 28
11507 14381 14384 28
11508 14381 14385 28
11509 14386 14387 28
11510 14386 14388 28
11511 14386 14389 28
11512 14386 14390 28
11513 14391 14392 28
11514 14391 14393 28
11515 14391 14394 28
11516 14391 14395 28
11517 14396 14397 28
11518 14396 14398 28
11519 14396 14399 28
11520 14396 14400 28
11521 14401 14402 28
11522 14401 14403 28
11523 14401 14404 28
11524 14401 14405 28
11525 14406 14407 28
11526 14406 14408 28
11527 14406 14409 28
11528 14406 14410 28
11529 14411 14412 28
11530 14411 14413 28
11531 14411 14414 28
11532 14411 14415 28
11533 14416 14417 28
11534 14416 14418 28
11535 14416 14419 28
11536 14416 14420 28
11537 14421 14422 28
11538 14421 14423 28
11539 14421 14424 28
11540 14421 14425 28
11541 14426 14427 28
11542 14426 14428 28
11543 14426 14429 28
11544 14426 14430 28
11545 14431 14432 28
11546 14431 14433 28
11547 14431 14434 28
11548 14431 14435 28
11549 14436 14437 28
11550 14436 14438 28
11551 14436 14439 28
11552 14436 14440 28
11553 14441 14442 28
11554 14441 14443 28
11555 14441 14444 28
11556 14441 14445 28
11557 14446 14447 28
11558 14446 14448 28
11559 14446 14449 28
11560 14446 14450 28
11561 14451 14452 28
11562 14451 14453 28
11563 14451 14454 28
11564 14451 14455 28
11565 14456 14457 28
11566 14456 14458 28
11567 14456 14459 28
11568 14456 14460 28
11569 14461 14462 28
11570 14461 14463 28
11571 14461 14464 28
11572 14461 14465 28
11573 14466 14467 28
11574 14466 14468 28
11575 14466 14469 28
11576 14466 14470 28
11577 14471 14472 28
11578 14471 14473 28
11579 14471 14474 28
11580 14471 14475 28
11581 14476 14477 28
11582 14476 14478 28
11583 14476 14479 28
11584 14476 14480 28
11585 14481 14482 28
11586 14481 14483 28
11587 14481 14484 28
11588 14481 14485 28
11589 14486 14487 28
11590 14486 14488 28
11591 14486 14489 28
11592 14486 14490 28
11593 14491 14492 28
11594 14491 14493 28
11595 14491 14494 28
11596 14491 14495 28
11597 14496 14497 28
11598 14496 14498 28
11599 14496 14499 28
11600 14496 14500 28
11601 14501 14502 28
11602 14501 14503 28
11603 14501 14504 28
11604 14501 14505 28
11605 14506 14507 28
11606 14506 14508 28
11607 14506 14509 28
11608 14506 14510 28
11609 14511 14512 28
11610 14511 14513 28
11611 14511 14514 28
11612 14511 14515 28
11613 14516 14517 28
11614 14516 14518 28
11615 14516 14519 28
11616 14516 14520 28
11617 14521 14522 28
11618 14521 14523 28
11619 14521 14524 28
11620 14521 14525 28
11621 14526 14527 28
11622 14526 14528 28
11623 14526 14529 28
11624 14526 14530 28
11625 14531 14532 28
11626 14531 14533 28
11627 14531 14534 28
11628 14531 14535 28
11629 14536 14537 28
11630 14536 14538 28
11631 14536 14539 28
11632 14536 14540 28
11633 14541 14542 28
11634 14541 14543 28
11635 14541 14544 28
11636 14541 14545 28
11637 14546 14547 28
11638 14546 14548 28
11639 14546 14549 28
11640 14546 14550 28
11641 14551 14552 28
11642 14551 14553 28
11643 14551 14554 28
11644 14551 14555 28
11645 14556 14557 28
11646 14556 14558 28
11647 14556 14559 28
11648 14556 14560 28
11649 14561 14562 28
11650 14561 14563 28
11651 14561 14564 28
11652 14561 14565 28
11653 14566 14567 28
11654 14566 14568 28
11655 14566 14569 28
11656 14566 14570 28
11657 14571 14572 28
11658 14571 14573 28
11659 14571 14574 28
11660 14571 14575 28
11661 14576 14577 28
11662 14576 14578 28
11663 14576 14579 28
11664 14576 14580 28
11665 14581 14582 28
11666 14581 14583 28
11667 14581 14584 28
11668 14581 14585 28
11669 14586 14587 28
11670 14586 14588 28
11671 14586 14589 28
11672 14586 14590 28
11673 14591 14592 28
11674 14591 14593 28
11675 14591 14594 28
11676 14591 14595 28
11677 14596 14597 28
11678 14596 14598 28
11679 14596 14599 28
11680 14596 14600 28
11681 14601 14602 28
11682 14601 14603 28
11683 14601 14604 28
11684 14601 14605 28
11685 14606 14607 28
11686 14606 14608 28
11687 14606 14609 28
11688 14606 14610 28
11689 14611 14612 28
11690 14611 14613 28
11691 14611 14614 28
11692 14611 14615 28
11693 14616 14617 28
11694 14616 14618 28
11695 14616 14619 28
11696 14616 14620 28
11697 14621 14622 28
11698 14621 14623 28
11699 14621 14624 28
11700 14621 14625 28
11701 14626 14627 28
11702 14626 14628 28
11703 14626 14629 28
11704 14626 14630 28
11705 14631 14632 28
11706 14631 14633 28
11707 14631 14634 28
11708 14631 14635 28
11709 14636 14637 28
11710 14636 14638 28
11711 14636 14639 28
11712 14636 14640 28
11713 14641 14642 28
11714 14641 14643 28
11715 14641 14644 28
11716 14641 14645 28
11717 14646 14647 28
11718 14646 14648 28
11719 14646 14649 28
11720 14646 14650 28
11721 14651 14652 28
11722 14651 14653 28
11723 14651 14654 28
11724 14651 14655 28
11725 14656 14657 28
11726 14656 14658 28
11727 14656 14659 28
11728 14656 14660 28
11729 14661 14662 28
11730 14661 14663 28
11731 14661 14664 28
11732 14661 14665 28
11733 14666 14667 28
11734 14666 14668 28
11735 14666 14669 28
11736 14666 14670 28
11737 14671 14672 28
11738 14671 14673 28
11739 14671 14674 28
11740 14671 14675 28
11741 14676 14677 28
11742 14676 14678 28
11743 14676 14679 28
11744 14676 14680 28
11745 14681 14682 28
11746 14681 14683 28
11747 14681 14684 28
11748 14681 14685 28
11749 14686 14687 28
11750 14686 14688 28
11751 14686 14689 28
11752 14686 14690 28
11753 14691 14692 28
11754 14691 14693 28
11755 14691 14694 28
11756 14691 14695 28
11757 14696 14697 28
11758 14696 14698 28
11759 14696 14699 28
11760 14696 14700 28
11761 14701 14702 28
11762 14701 14703 28
11763 14701 14704 28
11764 14701 14705 28
11765 14706 14707 28
11766 14706 14708 28
11767 14706 14709 28
11768 14706 14710 28
11769 14711 14712 28
11770 14711 14713 28
11771 14711 14714 28
11772 14711 14715 28
11773 14716 14717 28
11774 14716 14718 28
11775 14716 14719 28
11776 14716 14720 28
11777 14721 14722 28
11778 14721 14723 28
11779 14721 14724 28
11780 14721 14725 28
11781 14726 14727 28
11782 14726 14728 28
11783 14726 14729 28
11784 14726 14730 28
11785 14731 14732 28
11786 14731 14733 28
11787 14731 14734 28
11788 14731 14735 28
11789 14736 14737 28
11790 14736 14738 28
11791 14736 14739 28
11792 14736 14740 28
11793 14741 14742 28
11794 14741 14743 28
11795 14741 14744 28
11796 14741 14745 28
11797 14746 14747 28
11798 14746 14748 28
11799 14746 14749 28
11800 14746 14750 28
11801 14751 14752 28
11802 14751 14753 28
11803 14751 14754 28
11804 14751 14755 28
11805 14756 14757 28
11806 14756 14758 28
11807 14756 14759 28
11808 14756 14760 28
11809 14761 14762 28
11810 14761 14763 28
11811 14761 14764 28
11812 14761 14765 28
11813 14766 14767 28
11814 14766 14768 28
11815 14766 14769 28
11816 14766 14770 28
11817 14771 14772 28
11818 14771 14773 28
11819 14771 14774 28
11820 14771 14775 28
11821 14776 14777 28
11822 14776 14778 28
11823 14776 14779 28
11824 14776 14780 28
11825 14781 14782 28
11826 14781 14783 28
11827 14781 14784 28
11828 14781 14785 28
11829 14786 14787 28
11830 14786 14788 28
11831 14786 14789 28
11832 14786 14790 28
11833 14791 14792 28
11834 14791 14793 28
11835 14791 14794 28
11836 14791 14795 28
11837 14796 14797 28
11838 14796 14798 28
11839 14796 14799 28
11840 14796 14800 28
11841 14801 14802 28
11842 14801 14803 28
11843 14801 14804 28
11844 14801 14805 28
11845 14806 14807 28
11846 14806 14808 28
11847 14806 14809 28
11848 14806 14810 28
11849 14811 14812 28
11850 14811 14813 28
11851 14811 14814 28
11852 14811 14815 28
11853 14816 14817 28
11854 14816 14818 28
11855 14816 14819 28
11856 14816 14820 28
11857 14821 14822 28
11858 14821 14823 28
11859 14821 14824 28
11860 14821 14825 28
11861 14826 14827 28
11862 14826 14828 28
11863 14826 14829 28
11864 14826 14830 28
11865 14831 14832 28
11866 14831 14833 28
11867 14831 14834 28
11868 14831 14835 28
11869 14836 14837 28
11870 14836 14838 28
11871 14836 14839 28
11872 14836 14840 28
11873 14841 14842 28
11874 14841 14843 28
11875 14841 14844 28
11876 14841 14845 28
11877 14846 14847 28
11878 14846 14848 28
11879 14846 14849 28
11880 14846 14850 28
11881 14851 14852 28
11882 14851 14853 28
11883 14851 14854 28
11884 14851 14855 28
11885 14856 14857 28
11886 14856 14858 28
11887 14856 14859 28
11888 14856 14860 28
11889 14861 14862 28
11890 14861 14863 28
11891 14861 14864 28
11892 14861 14865 28
11893 14866 14867 28
11894 14866 14868 28
11895 14866 14869 28
11896 14866 14870 28
11897 14871 14872 28
11898 14871 14873 28
11899 14871 14874 28
11900 14871 14875 28
11901 14876 14877 28
11902 14876 14878 28
11903 14876 14879 28
11904 14876 14880 28
11905 14881 14882 28
11906 14881 14883 28
11907 14881 14884 28
11908 14881 14885 28
11909 14886 14887 28
11910 14886 14888 28
11911 14886 14889 28
11912 14886 14890 28
11913 14891 14892 28
11914 14891 14893 28
11915 14891 14894 28
11916 14891 14895 28
11917 14896 14897 28
11918 14896 14898 28
11919 14896 14899 28
11920 14896 14900 28
11921 14901 14902 28
11922 14901 14903 28
11923 14901 14904 28
11924 14901 14905 28
11925 14906 14907 28
11926 14906 14908 28
11927 14906 14909 28
11928 14906 14910 28
11929 14911 14912 28
11930 14911 14913 28
11931 14911 14914 28
11932 14911 14915 28
11933 14916 14917 28
11934 14916 14918 28
11935 14916 14919 28
11936 14916 14920 28
11937 14921 14922 28
11938 14921 14923 28
11939 14921 14924 28
11940 14921 14925 28
11941 14926 14927 28
11942 14926 14928 28
11943 14926 14929 28
11944 14926 14930 28
11945 14931 14932 28
11946 14931 14933 28
11947 14931 14934 28
11948 14931 14935 28
11949 14936 14937 28
11950 14936 14938 28
11951 14936 14939 28
11952 14936 14940 28
11953 14941 14942 28
11954 14941 14943 28
11955 14941 14944 28
11956 14941 14945 28
11957 14946 14947 28
11958 14946 14948 28
11959 14946 14949 28
11960 14946 14950 28
11961 14951 14952 28
11962 14951 14953 28
11963 14951 14954 28
11964 14951 14955 28
11965 14956 14957 28
11966 14956 14958 28
11967 14956 14959 28
11968 14956 14960 28
11969 14961 14962 28
11970 14961 14963 28
11971 14961 14964 28
11972 14961 14965 28
11973 14966 14967 28
11974 14966 14968 28
11975 14966 14969 28
11976 14966 14970 28
11977 14971 14972 28
11978 14971 14973 28
11979 14971 14974 28
11980 14971 14975 28
11981 14976 14977 28
11982 14976 14978 28
11983 14976 14979 28
11984 14976 14980 28
11985 14981 14982 28
11986 14981 14983 28
11987 14981 14984 28
11988 14981 14985 28
11989 14986 14987 28
11990 14986 14988 28
11991 14986 14989 28
11992 14986 14990 28
11993 14991 14992 28
11994 14991 14993 28
11995 14991 14994 28
11996 14991 14995 28
11997 14996 14997 28
11998 14996 14998 28
11999 14996 14999 28
12000 14996 15000 28
12001 15001 15002 28
12002 15001 15003 28
12003 15001 15004 28
12004 15001 15005 28
12005 15006 15007 28
12006 15006 15008 28
12007 15006 15009 28
12008 15006 15010 28
12009 15011 15012 28
12010 15011 15013 28
12011 15011 15014 28
12012 15011 15015 28
12013 15016 15017 28
12014 15016 15018 28
12015 15016 15019 28
12016 15016 15020 28
12017 15021 15022 28
12018 15021 15023 28
12019 15021 15024 28
12020 15021 15025 28
12021 15026 15027 28
12022 15026 15028 28
12023 15026 15029 28
12024 15026 15030 28
12025 15031 15032 28
12026 15031 15033 28
12027 15031 15034 28
12028 15031 15035 28
12029 15036 15037 28
12030 15036 15038 28
12031 15036 15039 28
12032 15036 15040 28
12033 15041 15042 28
12034 15041 15043 28
12035 15041 15044 28
12036 15041 15045 28
12037 15046 15047 28
12038 15046 15048 28
12039 15046 15049 28
12040 15046 15050 28
12041 15051 15052 28
12042 15051 15053 28
12043 15051 15054 28
12044 15051 15055 28
12045 15056 15057 28
12046 15056 15058 28
12047 15056 15059 28
12048 15056 15060 28
12049 15061 15062 28
12050 15061 15063 28
12051 15061 15064 28
12052 15061 15065 28
12053 15066 15067 28
12054 15066 15068 28
12055 15066 15069 28
12056 15066 15070 28
12057 15071 15072 28
12058 15071 15073 28
12059 15071 15074 28
12060 15071 15075 28
12061 15076 15077 28
12062 15076 15078 28
12063 15076 15079 28
12064 15076 15080 28
12065 15081 15082 28
12066 15081 15083 28
12067 15081 15084 28
12068 15081 15085 28
12069 15086 15087 28
12070 15086 15088 28
12071 15086 15089 28
12072 15086 15090 28
12073 15091 15092 28
12074 15091 15093 28
12075 15091 15094 28
12076 15091 15095 28
12077 15096 15097 28
12078 15096 15098 28
12079 15096 15099 28
12080 15096 15100 28
12081 15101 15102 28
12082 15101 15103 28
12083 15101 15104 28
12084 15101 15105 28
12085 15106 15107 28
12086 15106 15108 28
12087 15106 15109 28
12088 15106 15110 28
12089 15111 15112 28
12090 15111 15113 28
12091 15111 15114 28
12092 15111 15115 28
12093 15116 15117 28
12094 15116 15118 28
12095 15116 15119 28
12096 15116 15120 28
12097 15121 15122 28
12098 15121 15123 28
12099 15121 15124 28
12100 15121 15125 28
12101 15126 15127 28
12102 15126 15128 28
12103 15126 15129 28
12104 15126 15130 28
12105 15131 15132 28
12106 15131 15133 28
12107 15131 15134 28
12108 15131 15135 28
12109 15136 15137 28
12110 15136 15138 28
12111 15136 15139 28
12112 15136 15140 28
12113 15141 15142 28
12114 15141 15143 28
12115 15141 15144 28
12116 15141 15145 28
12117 15146 15147 28
12118 15146 15148 28
12119 15146 15149 28
12120 15146 15150 28
12121 15151 15152 28
12122 15151 15153 28
12123 15151 15154 28
12124 15151 15155 28
12125 15156 15157 28
12126 15156 15158 28
12127 15156 15159 28
12128 15156 15160 28
12129 15161 15162 28
12130 15161 15163 28
12131 15161 15164 28
12132 15161 15165 28
12133 15166 15167 28
12134 15166 15168 28
12135 15166 15169 28
12136 15166 15170 28
12137 15171 15172 28
12138 15171 15173 28
12139 15171 15174 28
12140 15171 15175 28
12141 15176 15177 28
12142 15176 15178 28
12143 15176 15179 28
12144 15176 15180 28
12145 15181 15182 28
12146 15181 15183 28
12147 15181 15184 28
12148 15181 15185 28
12149 15186 15187 28
12150 15186 15188 28
12151 15186 15189 28
12152 15186 15190 28
12153 15191 15192 28
12154 15191 15193 28
12155 15191 15194 28
12156 15191 15195 28
12157 15196 15197 28
12158 15196 15198 28
12159 15196 15199 28
12160 15196 15200 28
12161 15201 15202 28
12162 15201 15203 28
12163 15201 15204 28
12164 15201 15205 28
12165 15206 15207 28
12166 15206 15208 28
12167 15206 15209 28
12168 15206 15210 28
12169 15211 15212 28
12170 15211 15213 28
12171 15211 15214 28
12172 15211 15215 28
12173 15216 15217 28
12174 15216 15218 28
12175 15216 15219 28
12176 15216 15220 28
12177 15221 15222 28
12178 15221 15223 28
12179 15221 15224 28
12180 15221 15225 28
12181 15226 15227 28
12182 15226 15228 28
12183 15226 15229 28
12184 15226 15230 28
12185 15231 15232 28
12186 15231 15233 28
12187 15231 15234 28
12188 15231 15235 28
12189 15236 15237 28
12190 15236 15238 28
12191 15236 15239 28
12192 15236 15240 28
12193 15241 15242 28
12194 15241 15243 28
12195 15241 15244 28
12196 15241 15245 28
12197 15246 15247 28
12198 15246 15248 28
12199 15246 15249 28
12200 15246 15250 28
12201 15251 15252 28
12202 15251 15253 28
12203 15251 15254 28
12204 15251 15255 28
12205 15256 15257 28
12206 15256 15258 28
12207 15256 15259 28
12208 15256 15260 28
12209 15261 15262 28
12210 15261 15263 28
12211 15261 15264 28
12212 15261 15265 28
12213 15266 15267 28
12214 15266 15268 28
12215 15266 15269 28
12216 15266 15270 28
12217 15271 15272 28
12218 15271 15273 28
12219 15271 15274 28
12220 15271 15275 28
12221 15276 15277 28
12222 15276 15278 28
12223 15276 15279 28
12224 15276 15280 28
12225 15281 15282 28
12226 15281 15283 28
12227 15281 15284 28
12228 15281 15285 28
12229 15286 15287 28
12230 15286 15288 28
12231 15286 15289 28
12232 15286 15290 28
12233 15291 15292 28
12234 15291 15293 28
12235 15291 15294 28
12236 15291 15295 28
12237 15296 15297 28
12238 15296 15298 28
12239 15296 15299 28
12240 15296 15300 28
12241 15301 15302 28
12242 15301 15303 28
12243 15301 15304 28
12244 15301 15305 28
12245 15306 15307 28
12246 15306 15308 28
12247 15306 15309 28
12248 15306 15310 28
12249 15311 15312 28
12250 15311 15313 28
12251 15311 15314 28
12252 15311 15315 28
12253 15316 15317 28
12254 15316 15318 28
12255 15316 15319 28
12256 15316 15320 28
12257 15321 15322 28
12258 15321 15323 28
12259 15321 15324 28
12260 15321 15325 28
12261 15326 15327 28
12262 15326 15328 28
12263 15326 15329 28
12264 15326 15330 28
12265 15331 15332 28
12266 15331 15333 28
12267 15331 15334 28
12268 15331 15335 28
12269 15336 15337 28
12270 15336 15338 28
12271 15336 15339 28
12272 15336 15340 28
12273 15341 15342 28
12274 15341 15343 28
12275 15341 15344 28
12276 15341 15345 28
12277 15346 15347 28
12278 15346 15348 28
12279 15346 15349 28
12280 15346 15350 28
12281 15351 15352 28
12282 15351 15353 28
12283 15351 15354 28
12284 15351 15355 28
12285 15356 15357 28
12286 15356 15358 28
12287 15356 15359 28
12288 15356 15360 28
12289 15361 15362 28
12290 15361 15363 28
12291 15361 15364 28
12292 15361 15365 28
12293 15366 15367 28
12294 15366 15368 28
12295 15366 15369 28
12296 15366 15370 28
12297 15371 15372 28
12298 15371 15373 28
12299 15371 15374 28
12300 15371 15375 28
12301 15376 15377 28
12302 15376 15378 28
12303 15376 15379 28
12304 15376 15380 28
12305 15381 15382 28
12306 15381 15383 28
12307 15381 15384 28
12308 15381 15385 28
12309 15386 15387 28
12310 15386 15388 28
12311 15386 15389 28
12312 15386 15390 28
12313 15391 15392 28
12314 15391 15393 28
12315 15391 15394 28
12316 15391 15395 28
12317 15396 15397 28
12318 15396 15398 28
12319 15396 15399 28
12320 15396 15400 28
12321 15401 15402 28
12322 15401 15403 28
12323 15401 15404 28
12324 15401 15405 28
12325 15406 15407 28
12326 15406 15408 28
12327 15406 15409 28
12328 15406 15410 28
12329 15411 15412 28
12330 15411 15413 28
12331 15411 15414 28
12332 15411 15415 28
12333 15416 15417 28
12334 15416 15418 28
12335 15416 15419 28
12336 15416 15420 28
12337 15421 15422 28
12338 15421 15423 28
12339 15421 15424 28
12340 15421 15425 28
12341 15426 15427 28
12342 15426 15428 28
12343 15426 15429 28
12344 15426 15430 28
12345 15431 15432 28
12346 15431 15433 28
12347 15431 15434 28
12348 15431 15435 28
12349 15436 15437 28
12350 15436 15438 28
12351 15436 15439 28
12352 15436 15440 28
12353 15441 15442 28
12354 15441 15443 28
12355 15441 15444 28
12356 15441 15445 28
12357 15446 15447 28
12358 15446 15448 28
12359 15446 15449 28
12360 15446 15450 28
12361 15451 15452 28
12362 15451 15453 28
12363 15451 15454 28
12364 15451 15455 28
12365 15456 15457 28
12366 15456 15458 28
12367 15456 15459 28
12368 15456 15460 28
12369 15461 15462 28
12370 15461 15463 28
12371 15461 15464 28
12372 15461 15465 28
12373 15466 15467 28
12374 15466 15468 28
12375 15466 15469 28
12376 15466 15470 28
12377 15471 15472 28
12378 15471 15473 28
12379 15471 15474 28
12380 15471 15475 28
12381 15476 15477 28
12382 15476 15478 28
12383 15476 15479 28
12384 15476 15480 28
12385 15481 15482 28
12386 15481 15483 28
12387 15481 15484 28
12388 15481 15485 28
12389 15486 15487 28
12390 15486 15488 28
12391 15486 15489 28
12392 15486 15490 28
12393 15491 15492 28
12394 15491 15493 28
12395 15491 15494 28
12396 15491 15495 28
12397 15496 15497 28
12398 15496 15498 28
12399 15496 15499 28
12400 15496 15500 28
12401 15501 15502 28
12402 15501 15503 28
12403 15501 15504 28
12404 15501 15505 28
12405 15506 15507 28
12406 15506 15508 28
12407 15506 15509 28
12408 15506 15510 28
12409 15511 15512 28
12410 15511 15513 28
12411 15511 15514 28
12412 15511 15515 28
12413 15516 15517 28
12414 15516 15518 28
12415 15516 15519 28
12416 15516 15520 28
12417 15521 15522 28
12418 15521 15523 28
12419 15521 15524 28
12420 15521 15525 28
12421 15526 15527 28
12422 15526 15528 28
12423 15526 15529 28
12424 15526 15530 28
12425 15531 15532 28
12426 15531 15533 28
12427 15531 15534 28
12428 15531 15535 28
12429 15536 15537 28
12430 15536 15538 28
12431 15536 15539 28
12432 15536 15540 28
12433 15541 15542 28
12434 15541 15543 28
12435 15541 15544 28
12436 15541 15545 28
12437 15546 15547 28
12438 15546 15548 28
12439 15546 15549 28
12440 15546 15550 28
12441 15551 15552 28
12442 15551 15553 28
12443 15551 15554 28
12444 15551 15555 28
12445 15556 15557 28
12446 15556 15558 28
12447 15556 15559 28
12448 15556 15560 28
12449 15561 15562 28
12450 15561 15563 28
12451 15561 15564 28
12452 15561 15565 28
12453 15566 15567 28
12454 15566 15568 28
12455 15566 15569 28
12456 15566 15570 28
12457 15571 15572 28
12458 15571 15573 28
12459 15571 15574 28
12460 15571 15575 28
12461 15576 15577 28
12462 15576 15578 28
12463 15576 15579 28
12464 15576 15580 28
12465 15581 15582 28
12466 15581 15583 28
12467 15581 15584 28
12468 15581 15585 28
12469 15586 15587 28
12470 15586 15588 28
12471 15586 15589 28
12472 15586 15590 28
12473 15591 15592 28
12474 15591 15593 28
12475 15591 15594 28
12476 15591 15595 28
12477 15596 15597 28
12478 15596 15598 28
12479 15596 15599 28
12480 15596 15600 28
12481 15601 15602 28
12482 15601 15603 28
12483 15601 15604 28
12484 15601 15605 28
12485 15606 15607 28
12486 15606 15608 28
12487 15606 15609 28
12488 15606 15610 28
12489 15611 15612 28
12490 15611 15613 28
12491 15611 15614 28
12492 15611 15615 28
12493 15616 15617 28
12494 15616 15618 28
12495 15616 15619 28
12496 15616 15620 28
12497 15621 15622 28
12498 15621 15623 28
12499 15621 15624 28
12500 15621 15625 28
12501 15626 15627 28
12502 15626 15628 28
12503 15626 15629 28
12504 15626 15630 28
12505 15631 15632 28
12506 15631 15633 28
12507 15631 15634 28
12508 15631 15635 28
12509 15636 15637 28
12510 15636 15638 28
12511 15636 15639 28
12512 15636 15640 28
12513 15641 15642 28
12514 15641 15643 28
12515 15641 15644 28
12516 15641 15645 28
12517 15646 15647 28
12518 15646 15648 28
12519 15646 15649 28
12520 15646 15650 28
12521 15651 15652 28
12522 15651 15653 28
12523 15651 15654 28
12524 15651 15655 28
12525 15656 15657 28
12526 15656 15658 28
12527 15656 15659 28
12528 15656 15660 28
12529 15661 15662 28
12530 15661 15663 28
12531 15661 15664 28
12532 15661 15665 28
12533 15666 15667 28
12534 15666 15668 28
12535 15666 15669 28
12536 15666 15670 28
12537 15671 15672 28
12538 15671 15673 28
12539 15671 15674 28
12540 15671 15675 28
12541 15676 15677 28
12542 15676 15678 28
12543 15676 15679 28
12544 15676 15680 28
12545 15681 15682 28
12546 15681 15683 28
12547 15681 15684 28
12548 15681 15685 28
12549 15686 15687 28
12550 15686 15688 28
12551 15686 15689 28
12552 15686 15690 28
12553 15691 15692 28
12554 15691 15693 28
12555 15691 15694 28
12556 15691 15695 28
12557 15696 15697 28
12558 15696 15698 28
12559 15696 15699 28
12560 15696 15700 28
12561 15701 15702 28
12562 15701 15703 28
12563 15701 15704 28
12564 15701 15705 28
12565 15706 15707 28
12566 15706 15708 28
12567 15706 15709 28
12568 15706 15710 28
12569 15711 15712 28
12570 15711 15713 28
12571 15711 15714 28
12572 15711 15715 28
12573 15716 15717 28
12574 15716 15718 28
12575 15716 15719 28
12576 15716 15720 28
12577 15721 15722 28
12578 15721 15723 28
12579 15721 15724 28
12580 15721 15725 28
12581 15726 15727 28
12582 15726 15728 28
12583 15726 15729 28
12584 15726 15730 28
12585 15731 15732 28
12586 15731 15733 28
12587 15731 15734 28
12588 15731 15735 28
12589 15736 15737 28
12590 15736 15738 28
12591 15736 15739 28
12592 15736 15740 28
12593 15741 15742 28
12594 15741 15743 28
12595 15741 15744 28
12596 15741 15745 28
12597 15746 15747 28
12598 15746 15748 28
12599 15746 15749 28
12600 15746 15750 28
12601 15751 15752 28
12602 15751 15753 28
12603 15751 15754 28
12604 15751 15755 28
12605 15756 15757 28
12606 15756 15758 28
12607 15756 15759 28
12608 15756 15760 28
12609 15761 15762 28
12610 15761 15763 28
12611 15761 15764 28
12612 15761 15765 28
12613 15766 15767 28
12614 15766 15768 28
12615 15766 15769 28
12616 15766 15770 28
12617 15771 15772 28
12618 15771 15773 28
12619 15771 15774 28
12620 15771 15775 28
12621 15776 15777 28
12622 15776 15778 28
12623 15776 15779 28
12624 15776 15780 28
12625 15781 15782 28
12626 15781 15783 28
12627 15781 15784 28
12628 15781 15785 28
12629 15786 15787 28
12630 15786 15788 28
12631 15786 15789 28
12632 15786 15790 28
12633 15791 15792 28
12634 15791 15793 28
12635 15791 15794 28
12636 15791 15795 28
12637 15796 15797 28
12638 15796 15798 28
12639 15796 15799 28
12640 15796 15800 28
12641 15801 15802 28
12642 15801 15803 28
12643 15801 15804 28
12644 15801 15805 28
12645 15806 15807 28
12646 15806 15808 28
12647 15806 15809 28
12648 15806 15810 28
12649 15811 15812 28
12650 15811 15813 28
12651 15811 15814 28
12652 15811 15815 28
12653 15816 15817 28
12654 15816 15818 28
12655 15816 15819 28
12656 15816 15820 28
12657 15821 15822 28
12658 15821 15823 28
12659 15821 15824 28
12660 15821 15825 28
12661 15826 15827 28
12662 15826 15828 28
12663 15826 15829 28
12664 15826 15830 28
12665 15831 15832 28
12666 15831 15833 28
12667 15831 15834 28
12668 15831 15835 28
12669 15836 15837 28
12670 15836 15838 28
12671 15836 15839 28
12672 15836 15840 28
12673 15841 15842 28
12674 15841 15843 28
12675 15841 15844 28
12676 15841 15845 28
12677 15846 15847 28
12678 15846 15848 28
12679 15846 15849 28
12680 15846 15850 28
12681 15851 15852 28
12682 15851 15853 28
12683 15851 15854 28
12684 15851 15855 28
12685 15856 15857 28
12686 15856 15858 28
12687 15856 15859 28
12688 15856 15860 28
12689 15861 15862 28
12690 15861 15863 28
12691 15861 15864 28
12692 15861 15865 28
12693 15866 15867 28
12694 15866 15868 28
12695 15866 15869 28
12696 15866 15870 28
12697 15871 15872 28
12698 15871 15873 28
12699 15871 15874 28
12700 15871 15875 28
12701 15876 15877 28
12702 15876 15878 28
12703 15876 15879 28
12704 15876 15880 28
12705 15881 15882 28
12706 15881 15883 28
12707 15881 15884 28
12708 15881 15885 28
12709 15886 15887 28
12710 15886 15888 28
12711 15886 15889 28
12712 15886 15890 28
12713 15891 15892 28
12714 15891 15893 28
12715 15891 15894 28
12716 15891 15895 28
12717 15896 15897 28
12718 15896 15898 28
12719 15896 15899 28
12720 15896 15900 28
12721 15901 15902 28
12722 15901 15903 28
12723 15901 15904 28
12724 15901 15905 28
12725 15906 15907 28
12726 15906 15908 28
12727 15906 15909 28
12728 15906 15910 28
12729 15911 15912 28
12730 15911 15913 28
12731 15911 15914 28
12732 15911 15915 28
12733 15916 15917 28
12734 15916 15918 28
12735 15916 15919 28
12736 15916 15920 28
12737 15921 15922 28
12738 15921 15923 28
12739 15921 15924 28
12740 15921 15925 28
12741 15926 15927 28
12742 15926 15928 28
12743 15926 15929 28
12744 15926 15930 28
12745 15931 15932 28
12746 15931 15933 28
12747 15931 15934 28
12748 15931 15935 28
12749 15936 15937 28
12750 15936 15938 28
12751 15936 15939 28
12752 15936 15940 28
12753 15941 15942 28
12754 15941 15943 28
12755 15941 15944 28
12756 15941 15945 28
12757 15946 15947 28
12758 15946 15948 28
12759 15946 15949 28
12760 15946 15950 28
12761 15951 15952 28
12762 15951 15953 28
12763 15951 15954 28
12764 15951 15955 28
12765 15956 15957 28
12766 15956 15958 28
12767 15956 15959 28
12768 15956 15960 28
12769 15961 15962 28
12770 15961 15963 28
12771 15961 15964 28
12772 15961 15965 28
12773 15966 15967 28
12774 15966 15968 28
12775 15966 15969 28
12776 15966 15970 28
12777 15971 15972 28
12778 15971 15973 28
12779 15971 15974 28
12780 15971 15975 28
12781 15976 15977 28
12782 15976 15978 28
12783 15976 15979 28
12784 15976 15980 28
12785 15981 15982 28
12786 15981 15983 28
12787 15981 15984 28
12788 15981 15985 28
12789 15986 15987 28
12790 15986 15988 28
12791 15986 15989 28
12792 15986 15990 28
12793 15991 15992 28
12794 15991 15993 28
12795 15991 15994 28
12796 15991 15995 28
12797 15996 15997 28
12798 15996 15998 28
12799 15996 15999 28
12800 15996 16000 28
12801 16001 16002 28
12802 16001 16003 28
12803 16001 16004 28
12804 16001 16005 28
12805 16006 16007 28
12806 16006 16008 28
12807 16006 16009 28
12808 16006 16010 28
12809 16011 16012 28
12810 16011 16013 28
12811 16011 16014 28
12812 16011 16015 28
12813 16016 16017 28
12814 16016 16018 28
12815 16016 16019 28
12816 16016 16020 28
12817 16021 16022 28
12818 16021 16023 28
12819 16021 16024 28
12820 16021 16025 28
12821 16026 16027 28
12822 16026 16028 28
12823 16026 16029 28
12824 16026 16030 28
12825 16031 16032 28
12826 16031 16033 28
12827 16031 16034 28
12828 16031 16035 28
12829 16036 16037 28
12830 16036 16038 28
12831 16036 16039 28
12832 16036 16040 28
12833 16041 16042 28
12834 16041 16043 28
12835 16041 16044 28
12836 16041 16045 28
12837 16046 16047 28
12838 16046 16048 28
12839 16046 16049 28
12840 16046 16050 28
12841 16051 16052 28
12842 16051 16053 28
12843 16051 16054 28
12844 16051 16055 28
12845 16056 16057 28
12846 16056 16058 28
12847 16056 16059 28
12848 16056 16060 28
12849 16061 16062 28
12850 16061 16063 28
12851 16061 16064 28
12852 16061 16065 28
12853 16066 16067 28
12854 16066 16068 28
12855 16066 16069 28
12856 16066 16070 28
12857 16071 16072 28
12858 16071 16073 28
12859 16071 16074 28
12860 16071 16075 28
12861 16076 16077 28
12862 16076 16078 28
12863 16076 16079 28
12864 16076 16080 28
12865 16081 16082 28
12866 16081 16083 28
12867 16081 16084 28
12868 16081 16085 28
12869 16086 16087 28
12870 16086 16088 28
12871 16086 16089 28
12872 16086 16090 28
12873 16091 16092 28
12874 16091 16093 28
12875 16091 16094 28
12876 16091 16095 28
12877 16096 16097 28
12878 16096 16098 28
12879 16096 16099 28
12880 16096 16100 28
12881 16101 16102 28
12882 16101 16103 28
12883 16101 16104 28
12884 16101 16105 28
12885 16106 16107 28
12886 16106 16108 28
12887 16106 16109 28
12888 16106 16110 28
12889 16111 16112 28
12890 16111 16113 28
12891 16111 16114 28
12892 16111 16115 28
12893 16116 16117 28
12894 16116 16118 28
12895 16116 16119 28
12896 16116 16120 28
12897 16121 16122 28
12898 16121 16123 28
12899 16121 16124 28
12900 16121 16125 28
12901 16126 16127 28
12902 16126 16128 28
12903 16126 16129 28
12904 16126 16130 28
12905 16131 16132 28
12906 16131 16133 28
12907 16131 16134 28
12908 16131 16135 28
12909 16136 16137 28
12910 16136 16138 28
12911 16136 16139 28
12912 16136 16140 28
12913 16141 16142 28
12914 16141 16143 28
12915 16141 16144 28
12916 16141 16145 28
12917 16146 16147 28
12918 16146 16148 28
12919 16146 16149 28
12920 16146 16150 28
12921 16151 16152 28
12922 16151 16153 28
12923 16151 16154 28
12924 16151 16155 28
12925 16156 16157 28
12926 16156 16158 28
12927 16156 16159 28
12928 16156 16160 28
12929 16161 16162 28
12930 16161 16163 28
12931 16161 16164 28
12932 16161 16165 28
12933 16166 16167 28
12934 16166 16168 28
12935 16166 16169 28
12936 16166 16170 28
12937 16171 16172 28
12938 16171 16173 28
12939 16171 16174 28
12940 16171 16175 28
12941 16176 16177 28
12942 16176 16178 28
12943 16176 16179 28
12944 16176 16180 28
12945 16181 16182 28
12946 16181 16183 28
12947 16181 16184 28
12948 16181 16185 28
12949 16186 16187 28
12950 16186 16188 28
12951 16186 16189 28
12952 16186 16190 28
12953 16191 16192 28
12954 16191 16193 28
12955 16191 16194 28
12956 16191 16195 28
12957 16196 16197 28
12958 16196 16198 28
12959 16196 16199 28
12960 16196 16200 28
12961 16201 16202 28
12962 16201 16203 28
12963 16201 16204 28
12964 16201 16205 28
12965 16206 16207 28
12966 16206 16208 28
12967 16206 16209 28
12968 16206 16210 28
12969 16211 16212 28
12970 16211 16213 28
12971 16211 16214 28
12972 16211 16215 28
12973 16216 16217 28
12974 16216 16218 28
12975 16216 16219 28
12976 16216 16220 28
12977 16221 16222 28
12978 16221 16223 28
12979 16221 16224 28
12980 16221 16225 28
12981 16226 16227 28
12982 16226 16228 28
12983 16226 16229 28
12984 16226 16230 28
12985 16231 16232 28
12986 16231 16233 28
12987 16231 16234 28
12988 16231 16235 28
12989 16236 16237 28
12990 16236 16238 28
12991 16236 16239 28
12992 16236 16240 28
12993 16241 16242 28
12994 16241 16243 28
12995 16241 16244 28
12996 16241 16245 28
12997 16246 16247 28
12998 16246 16248 28
12999 16246 16249 28
13000 16246 16250 28
13001 16251 16252 28
13002 16251 16253 28
13003 16251 16254 28
13004 16251 16255 28
13005 16256 16257 28
13006 16256 16258 28
13007 16256 16259 28
13008 16256 16260 28
13009 16261 16262 28
13010 16261 16263 28
13011 16261 16264 28
13012 16261 16265 28
13013 16266 16267 28
13014 16266 16268 28
13015 16266 16269 28
13016 16266 16270 28
13017 16271 16272 28
13018 16271 16273 28
13019 16271 16274 28
13020 16271 16275 28
13021 16276 16277 28
13022 16276 16278 28
13023 16276 16279 28
13024 16276 16280 28
13025 16281 16282 28
13026 16281 16283 28
13027 16281 16284 28
13028 16281 16285 28
13029 16286 16287 28
13030 16286 16288 28
13031 16286 16289 28
13032 16286 16290 28
13033 16291 16292 28
13034 16291 16293 28
13035 16291 16294 28
13036 16291 16295 28
13037 16296 16297 28
13038 16296 16298 28
13039 16296 16299 28
13040 16296 16300 28
13041 16301 16302 28
13042 16301 16303 28
13043 16301 16304 28
13044 16301 16305 28
13045 16306 16307 28
13046 16306 16308 28
13047 16306 16309 28
13048 16306 16310 28
13049 16311 16312 28
13050 16311 16313 28
13051 16311 16314 28
13052 16311 16315 28
13053 16316 16317 28
13054 16316 16318 28
13055 16316 16319 28
13056 16316 16320 28
13057 16321 16322 28
13058 16321 16323 28
13059 16321 16324 28
13060 16321 16325 28
13061 16326 16327 28
13062 16326 16328 28
13063 16326 16329 28
13064 16326 16330 28
13065 16331 16332 28
13066 16331 16333 28
13067 16331 16334 28
13068 16331 16335 28
13069 16336 16337 28
13070 16336 16338 28
13071 16336 16339 28
13072 16336 16340 28
13073 16341 16342 28
13074 16341 16343 28
13075 16341 16344 28
13076 16341 16345 28
13077 16346 16347 28
13078 16346 16348 28
13079 16346 16349 28
13080 16346 16350 28
13081 16351 16352 28
13082 16351 16353 28
13083 16351 16354 28
13084 16351 16355 28
13085 16356 16357 28
13086 16356 16358 28
13087 16356 16359 28
13088 16356 16360 28
13089 16361 16362 28
13090 16361 16363 28
13091 16361 16364 28
13092 16361 16365 28
13093 16366 16367 28
13094 16366 16368 28
13095 16366 16369 28
13096 16366 16370 28
13097 16371 16372 28
13098 16371 16373 28
13099 16371 16374 28
13100 16371 16375 28
13101 16376 16377 28
13102 16376 16378 28
13103 16376 16379 28
13104 16376 16380 28
13105 16381 16382 28
13106 16381 16383 28
13107 16381 16384 28
13108 16381 16385 28
13109 16386 16387 28
13110 16386 16388 28
13111 16386 16389 28
13112 16386 16390 28
13113 16391 16392 28
13114 16391 16393 28
13115 16391 16394 28
13116 16391 16395 28
13117 16396 16397 28
13118 16396 16398 28
13119 16396 16399 28
13120 16396 16400 28
13121 16401 16402 28
13122 16401 16403 28
13123 16401 16404 28
13124 16401 16405 28
13125 16406 16407 28
13126 16406 16408 28
13127 16406 16409 28
13128 16406 16410 28
13129 16411 16412 28
13130 16411 16413 28
13131 16411 16414 28
13132 16411 16415 28
13133 16416 16417 28
13134 16416 16418 28
13135 16416 16419 28
13136 16416 16420 28
13137 16421 16422 28
13138 16421 16423 28
13139 16421 16424 28
13140 16421 16425 28
13141 16426 16427 28
13142 16426 16428 28
13143 16426 16429 28
13144 16426 16430 28
13145 16431 16432 28
13146 16431 16433 28
13147 16431 16434 28
13148 16431 16435 28
13149 16436 16437 28
13150 16436 16438 28
13151 16436 16439 28
13152 16436 16440 28
13153 16441 16442 28
13154 16441 16443 28
13155 16441 16444 28
13156 16441 16445 28
13157 16446 16447 28
13158 16446 16448 28
13159 16446 16449 28
13160 16446 16450 28
13161 16451 16452 28
13162 16451 16453 28
13163 16451 16454 28
13164 16451 16455 28
13165 16456 16457 28
13166 16456 16458 28
13167 16456 16459 28
13168 16456 16460 28
13169 16461 16462 28
13170 16461 16463 28
13171 16461 16464 28
13172 16461 16465 28
13173 16466 16467 28
13174 16466 16468 28
13175 16466 16469 28
13176 16466 16470 28
13177 16471 16472 28
13178 16471 16473 28
13179 16471 16474 28
13180 16471 16475 28
13181 16476 16477 28
13182 16476 16478 28
13183 16476 16479 28
13184 16476 16480 28
13185 16481 16482 28
13186 16481 16483 28
13187 16481 16484 28
13188 16481 16485 28
13189 16486 16487 28
13190 16486 16488 28
13191 16486 16489 28
13192 16486 16490 28
13193 16491 16492 28
13194 16491 16493 28
13195 16491 16494 28
13196 16491 16495 28
13197 16496 16497 28
13198 16496 16498 28
13199 16496 16499 28
13200 16496 16500 28
13201 16501 16502 28
13202 16501 16503 28
13203 16501 16504 28
13204 16501 16505 28
13205 16506 16507 28
13206 16506 16508 28
13207 16506 16509 28
13208 16506 16510 28
13209 16511 16512 28
13210 16511 16513 28
13211 16511 16514 28
13212 16511 16515 28
13213 16516 16517 28
13214 16516 16518 28
13215 16516 16519 28
13216 16516 16520 28
13217 16521 16522 28
13218 16521 16523 28
13219 16521 16524 28
13220 16521 16525 28
13221 16526 16527 28
13222 16526 16528 28
13223 16526 16529 28
13224 16526 16530 28
13225 16531 16532 28
13226 16531 16533 28
13227 16531 16534 28
13228 16531 16535 28
13229 16536 16537 28
13230 16536 16538 28
13231 16536 16539 28
13232 16536 16540 28
13233 16541 16542 28
13234 16541 16543 28
13235 16541 16544 28
13236 16541 16545 28
13237 16546 16547 28
13238 16546 16548 28
13239 16546 16549 28
13240 16546 16550 28
13241 16551 16552 28
13242 16551 16553 28
13243 16551 16554 28
13244 16551 16555 28
13245 16556 16557 28
13246 16556 16558 28
13247 16556 16559 28
13248 16556 16560 28
13249 16561 16562 28
13250 16561 16563 28
13251 16561 16564 28
13252 16561 16565 28
13253 16566 16567 28
13254 16566 16568 28
13255 16566 16569 28
13256 16566 16570 28
13257 16571 16572 28
13258 16571 16573 28
13259 16571 16574 28
13260 16571 16575 28
13261 16576 16577 28
13262 16576 16578 28
13263 16576 16579 28
13264 16576 16580 28
13265 16581 16582 28
13266 16581 16583 28
13267 16581 16584 28
13268 16581 16585 28
13269 16586 16587 28
13270 16586 16588 28
13271 16586 16589 28
13272 16586 16590 28
13273 16591 16592 28
13274 16591 16593 28
13275 16591 16594 28
13276 16591 16595 28
13277 16596 16597 28
13278 16596 16598 28
13279 16596 16599 28
13280 16596 16600 28
13281 16601 16602 28
13282 16601 16603 28
13283 16601 16604 28
13284 16601 16605 28
13285 16606 16607 28
13286 16606 16608 28
13287 16606 16609 28
13288 16606 16610 28
13289 16611 16612 28
13290 16611 16613 28
13291 16611 16614 28
13292 16611 16615 28
13293 16616 16617 28
13294 16616 16618 28
13295 16616 16619 28
13296 16616 16620 28
13297 16621 16622 28
13298 16621 16623 28
13299 16621 16624 28
13300 16621 16625 28
13301 16626 16627 28
13302 16626 16628 28
13303 16626 16629 28
13304 16626 16630 28
13305 16631 16632 28
13306 16631 16633 28
13307 16631 16634 28
13308 16631 16635 28
13309 16636 16637 28
13310 16636 16638 28
13311 16636 16639 28
13312 16636 16640 28
13313 16641 16642 28
13314 16641 16643 28
13315 16641 16644 28
13316 16641 16645 28
13317 16646 16647 28
13318 16646 16648 28
13319 16646 16649 28
13320 16646 16650 28
13321 16651 16652 28
13322 16651 16653 28
13323 16651 16654 28
13324 16651 16655 28
13325 16656 16657 28
13326 16656 16658 28
13327 16656 16659 28
13328 16656 16660 28
13329 16661 16662 28
13330 16661 16663 28
13331 16661 16664 28
13332 16661 16665 28
13333 16666 16667 28
13334 16666 16668 28
13335 16666 16669 28
13336 16666 16670 28
13337 16671 16672 28
13338 16671 16673 28
13339 16671 16674 28
13340 16671 16675 28
13341 16676 16677 28
13342 16676 16678 28
13343 16676 16679 28
13344 16676 16680 28
13345 16681 16682 28
13346 16681 16683 28
13347 16681 16684 28
13348 16681 16685 28
13349 16686 16687 28
13350 16686 16688 28
13351 16686 16689 28
13352 16686 16690 28
13353 16691 16692 28
13354 16691 16693 28
13355 16691 16694 28
13356 16691 16695 28
13357 16696 16697 28
13358 16696 16698 28
13359 16696 16699 28
13360 16696 16700 28
13361 16701 16702 28
13362 16701 16703 28
13363 16701 16704 28
13364 16701 16705 28
13365 16706 16707 28
13366 16706 16708 28
13367 16706 16709 28
13368 16706 16710 28
13369 16711 16712 28
13370 16711 16713 28
13371 16711 16714 28
13372 16711 16715 28
13373 16716 16717 28
13374 16716 16718 28
13375 16716 16719 28
13376 16716 16720 28
13377 16721 16722 28
13378 16721 16723 28
13379 16721 16724 28
13380 16721 16725 28
13381 16726 16727 28
13382 16726 16728 28
13383 16726 16729 28
13384 16726 16730 28
13385 16731 16732 28
13386 16731 16733 28
13387 16731 16734 28
13388 16731 16735 28
13389 16736 16737 28
13390 16736 16738 28
13391 16736 16739 28
13392 16736 16740 28
13393 16741 16742 28
13394 16741 16743 28
13395 16741 16744 28
13396 16741 16745 28
13397 16746 16747 28
13398 16746 16748 28
13399 16746 16749 28
13400 16746 16750 28
13401 16751 16752 28
13402 16751 16753 28
13403 16751 16754 28
13404 16751 16755 28
13405 16756 16757 28
13406 16756 16758 28
13407 16756 16759 28
13408 16756 16760 28
13409 16761 16762 28
13410 16761 16763 28
13411 16761 16764 28
13412 16761 16765 28
13413 16766 16767 28
13414 16766 16768 28
13415 16766 16769 28
13416 16766 16770 28
13417 16771 16772 28
13418 16771 16773 28
13419 16771 16774 28
13420 16771 16775 28
13421 16776 16777 28
13422 16776 16778 28
13423 16776 16779 28
13424 16776 16780 28
13425 16781 16782 28
13426 16781 16783 28
13427 16781 16784 28
13428 16781 16785 28
13429 16786 16787 28
13430 16786 16788 28
13431 16786 16789 28
13432 16786 16790 28
13433 16791 16792 28
13434 16791 16793 28
13435 16791 16794 28
13436 16791 16795 28
13437 16796 16797 28
13438 16796 16798 28
13439 16796 16799 28
13440 16796 16800 28
13441 16801 16802 28
13442 16801 16803 28
13443 16801 16804 28
13444 16801 16805 28
13445 16806 16807 28
13446 16806 16808 28
13447 16806 16809 28
13448 16806 16810 28
13449 16811 16812 28
13450 16811 16813 28
13451 16811 16814 28
13452 16811 16815 28
13453 16816 16817 28
13454 16816 16818 28
13455 16816 16819 28
13456 16816 16820 28
13457 16821 16822 28
13458 16821 16823 28
13459 16821 16824 28
13460 16821 16825 28
13461 16826 16827 28
13462 16826 16828 28
13463 16826 16829 28
13464 16826 16830 28
13465 16831 16832 28
13466 16831 16833 28
13467 16831 16834 28
13468 16831 16835 28
13469 16836 16837 28
13470 16836 16838 28
13471 16836 16839 28
13472 16836 16840 28
13473 16841 16842 28
13474 16841 16843 28
13475 16841 16844 28
13476 16841 16845 28
13477 16846 16847 28
13478 16846 16848 28
13479 16846 16849 28
13480 16846 16850 28
13481 16851 16852 28
13482 16851 16853 28
13483 16851 16854 28
13484 16851 16855 28
13485 16856 16857 28
13486 16856 16858 28
13487 16856 16859 28
13488 16856 16860 28
13489 16861 16862 28
13490 16861 16863 28
13491 16861 16864 28
13492 16861 16865 28
13493 16866 16867 28
13494 16866 16868 28
13495 16866 16869 28
13496 16866 16870 28
13497 16871 16872 28
13498 16871 16873 28
13499 16871 16874 28
13500 16871 16875 28
13501 16876 16877 28
13502 16876 16878 28
13503 16876 16879 28
13504 16876 16880 28
13505 16881 16882 28
13506 16881 16883 28
13507 16881 16884 28
13508 16881 16885 28
13509 16886 16887 28
13510 16886 16888 28
13511 16886 16889 28
13512 16886 16890 28
13513 16891 16892 28
13514 16891 16893 28
13515 16891 16894 28
13516 16891 16895 28
13517 16896 16897 28
13518 16896 16898 28
13519 16896 16899 28
13520 16896 16900 28
13521 16901 16902 28
13522 16901 16903 28
13523 16901 16904 28
13524 16901 16905 28
13525 16906 16907 28
13526 16906 16908 28
13527 16906 16909 28
13528 16906 16910 28
13529 16911 16912 28
13530 16911 16913 28
13531 16911 16914 28
13532 16911 16915 28
13533 16916 16917 28
13534 16916 16918 28
13535 16916 16919 28
13536 16916 16920 28
13537 16921 16922 28
13538 16921 16923 28
13539 16921 16924 28
13540 16921 16925 28
13541 16926 16927 28
13542 16926 16928 28
13543 16926 16929 28
13544 16926 16930 28
13545 16931 16932 28
13546 16931 16933 28
13547 16931 16934 28
13548 16931 16935 28
13549 16936 16937 28
13550 16936 16938 28
13551 16936 16939 28
13552 16936 16940 28
13553 16941 16942 28
13554 16941 16943 28
13555 16941 16944 28
13556 16941 16945 28
13557 16946 16947 28
13558 16946 16948 28
13559 16946 16949 28
13560 16946 16950 28
13561 16951 16952 28
13562 16951 16953 28
13563 16951 16954 28
13564 16951 16955 28
13565 16956 16957 28
13566 16956 16958 28
13567 16956 16959 28
13568 16956 16960 28
13569 16961 16962 28
13570 16961 16963 28
13571 16961 16964 28
13572 16961 16965 28
13573 16966 16967 28
13574 16966 16968 28
13575 16966 16969 28
13576 16966 16970 28
13577 16971 16972 28
13578 16971 16973 28
13579 16971 16974 28
13580 16971 16975 28
13581 16976 16977 28
13582 16976 16978 28
13583 16976 16979 28
13584 16976 16980 28
13585 16981 16982 28
13586 16981 16983 28
13587 16981 16984 28
13588 16981 16985 28
13589 16986 16987 28
13590 16986 16988 28
13591 16986 16989 28
13592 16986 16990 28
13593 16991 16992 28
13594 16991 16993 28
13595 16991 16994 28
13596 16991 16995 28
13597 16996 16997 28
13598 16996 16998 28
13599 16996 16999 28
13600 16996 17000 28
13601 17001 17002 28
13602 17001 17003 28
13603 17001 17004 28
13604 17001 17005 28
13605 17006 17007 28
13606 17006 17008 28
13607 17006 17009 28
13608 17006 17010 28
13609 17011 17012 28
13610 17011 17013 28
13611 17011 17014 28
13612 17011 17015 28
13613 17016 17017 28
13614 17016 17018 28
13615 17016 17019 28
13616 17016 17020 28
13617 17021 17022 28
13618 17021 17023 28
13619 17021 17024 28
13620 17021 17025 28
13621 17026 17027 28
13622 17026 17028 28
13623 17026 17029 28
13624 17026 17030 28
13625 17031 17032 28
13626 17031 17033 28
13627 17031 17034 28
13628 17031 17035 28
13629 17036 17037 28
13630 17036 17038 28
13631 17036 17039 28
13632 17036 17040 28
13633 17041 17042 28
13634 17041 17043 28
13635 17041 17044 28
13636 17041 17045 28
13637 17046 17047 28
13638 17046 17048 28
13639 17046 17049 28
13640 17046 17050 28
13641 17051 17052 28
13642 17051 17053 28
13643 17051 17054 28
13644 17051 17055 28
13645 17056 17057 28
13646 17056 17058 28
13647 17056 17059 28
13648 17056 17060 28
13649 17061 17062 28
13650 17061 17063 28
13651 17061 17064 28
13652 17061 17065 28
13653 17066 17067 28
13654 17066 17068 28
13655 17066 17069 28
13656 17066 17070 28
13657 17071 17072 28
13658 17071 17073 28
13659 17071 17074 28
13660 17071 17075 28
13661 17076 17077 28
13662 17076 17078 28
13663 17076 17079 28
13664 17076 17080 28
13665 17081 17082 28
13666 17081 17083 28
13667 17081 17084 28
13668 17081 17085 28
13669 17086 17087 28
13670 17086 17088 28
13671 17086 17089 28
13672 17086 17090 28
13673 17091 17092 28
13674 17091 17093 28
13675 17091 17094 28
13676 17091 17095 28
13677 17096 17097 28
13678 17096 17098 28
13679 17096 17099 28
13680 17096 17100 28
13681 17101 17102 28
13682 17101 17103 28
13683 17101 17104 28
13684 17101 17105 28
13685 17106 17107 28
13686 17106 17108 28
13687 17106 17109 28
13688 17106 17110 28
13689 17111 17112 28
13690 17111 17113 28
13691 17111 17114 28
13692 17111 17115 28
13693 17116 17117 28
13694 17116 17118 28
13695 17116 17119 28
13696 17116 17120 28
13697 17121 17122 28
13698 17121 17123 28
13699 17121 17124 28
13700 17121 17125 28
13701 17126 17127 28
13702 17126 17128 28
13703 17126 17129 28
13704 17126 17130 28
13705 17131 17132 28
13706 17131 17133 28
13707 17131 17134 28
13708 17131 17135 28
13709 17136 17137 28
13710 17136 17138 28
13711 17136 17139 28
13712 17136 17140 28
13713 17141 17142 28
13714 17141 17143 28
13715 17141 17144 28
13716 17141 17145 28
13717 17146 17147 28
13718 17146 17148 28
13719 17146 17149 28
13720 17146 17150 28
13721 17151 17152 28
13722 17151 17153 28
13723 17151 17154 28
13724 17151 17155 28
13725 17156 17157 28
13726 17156 17158 28
13727 17156 17159 28
13728 17156 17160 28
13729 17161 17162 28
13730 17161 17163 28
13731 17161 17164 28
13732 17161 17165 28
13733 17166 17167 28
13734 17166 17168 28
13735 17166 17169 28
13736 17166 17170 28
13737 17171 17172 28
13738 17171 17173 28
13739 17171 17174 28
13740 17171 17175 28
13741 17176 17177 28
13742 17176 17178 28
13743 17176 17179 28
13744 17176 17180 28
13745 17181 17182 28
13746 17181 17183 28
13747 17181 17184 28
13748 17181 17185 28
13749 17186 17187 28
13750 17186 17188 28
13751 17186 17189 28
13752 17186 17190 28
13753 17191 17192 28
13754 17191 17193 28
13755 17191 17194 28
13756 17191 17195 28
13757 17196 17197 28
13758 17196 17198 28
13759 17196 17199 28
13760 17196 17200 28
13761 17201 17202 28
13762 17201 17203 28
13763 17201 17204 28
13764 17201 17205 28
13765 17206 17207 28
13766 17206 17208 28
13767 17206 17209 28
13768 17206 17210 28
13769 17211 17212 28
13770 17211 17213 28
13771 17211 17214 28
13772 17211 17215 28
13773 17216 17217 28
13774 17216 17218 28
13775 17216 17219 28
13776 17216 17220 28
13777 17221 17222 28
13778 17221 17223 28
13779 17221 17224 28
13780 17221 17225 28
13781 17226 17227 28
13782 17226 17228 28
13783 17226 17229 28
13784 17226 17230 28
13785 17231 17232 28
13786 17231 17233 28
13787 17231 17234 28
13788 17231 17235 28
13789 17236 17237 28
13790 17236 17238 28
13791 17236 17239 28
13792 17236 17240 28
13793 17241 17242 28
13794 17241 17243 28
13795 17241 17244 28
13796 17241 17245 28
13797 17246 17247 28
13798 17246 17248 28
13799 17246 17249 28
13800 17246 17250 28
13801 17251 17252 28
13802 17251 17253 28
13803 17251 17254 28
13804 17251 17255 28
13805 17256 17257 28
13806 17256 17258 28
13807 17256 17259 28
13808 17256 17260 28
13809 17261 17262 28
13810 17261 17263 28
13811 17261 17264 28
13812 17261 17265 28
13813 17266 17267 28
13814 17266 17268 28
13815 17266 17269 28
13816 17266 17270 28
13817 17271 17272 28
13818 17271 17273 28
13819 17271 17274 28
13820 17271 17275 28
13821 17276 17277 28
13822 17276 17278 28
13823 17276 17279 28
13824 17276 17280 28
13825 17281 17282 28
13826 17281 17283 28
13827 17281 17284 28
13828 17281 17285 28
13829 17286 17287 28
13830 17286 17288 28
13831 17286 17289 28
13832 17286 17290 28
13833 17291 17292 28
13834 17291 17293 28
13835 17291 17294 28
13836 17291 17295 28
13837 17296 17297 28
13838 17296 17298 28
13839 17296 17299 28
13840 17296 17300 28
13841 17301 17302 28
13842 17301 17303 28
13843 17301 17304 28
13844 17301 17305 28
13845 17306 17307 28
13846 17306 17308 28
13847 17306 17309 28
13848 17306 17310 28
13849 17311 17312 28
13850 17311 17313 28
13851 17311 17314 28
13852 17311 17315 28
13853 17316 17317 28
13854 17316 17318 28
13855 17316 17319 28
13856 17316 17320 28
13857 17321 17322 28
13858 17321 17323 28
13859 17321 17324 28
13860 17321 17325 28
13861 17326 17327 28
13862 17326 17328 28
13863 17326 17329 28
13864 17326 17330 28
13865 17331 17332 28
13866 17331 17333 28
13867 17331 17334 28
13868 17331 17335 28
13869 17336 17337 28
13870 17336 17338 28
13871 17336 17339 28
13872 17336 17340 28
13873 17341 17342 28
13874 17341 17343 28
13875 17341 17344 28
13876 17341 17345 28
13877 17346 17347 28
13878 17346 17348 28
13879 17346 17349 28
13880 17346 17350 28
13881 17351 17352 28
13882 17351 17353 28
13883 17351 17354 28
13884 17351 17355 28
13885 17356 17357 28
13886 17356 17358 28
13887 17356 17359 28
13888 17356 17360 28
13889 17361 17362 28
13890 17361 17363 28
13891 17361 17364 28
13892 17361 17365 28
13893 17366 17367 28
13894 17366 17368 28
13895 17366 17369 28
13896 17366 17370 28
13897 17371 17372 28
13898 17371 17373 28
13899 17371 17374 28
13900 17371 17375 28
13901 17376 17377 28
13902 17376 17378 28
13903 17376 17379 28
13904 17376 17380 28
13905 17381 17382 28
13906 17381 17383 28
13907 17381 17384 28
13908 17381 17385 28
13909 17386 17387 28
13910 17386 17388 28
13911 17386 17389 28
13912 17386 17390 28
13913 17391 17392 28
13914 17391 17393 28
13915 17391 17394 28
13916 17391 17395 28
13917 17396 17397 28
13918 17396 17398 28
13919 17396 17399 28
13920 17396 17400 28
13921 17401 17402 28
13922 17401 17403 28
13923 17401 17404 28
13924 17401 17405 28
13925 17406 17407 28
13926 17406 17408 28
13927 17406 17409 28
13928 17406 17410 28
13929 17411 17412 28
13930 17411 17413 28
13931 17411 17414 28
13932 17411 17415 28
13933 17416 17417 28
13934 17416 17418 28
13935 17416 17419 28
13936 17416 17420 28
13937 17421 17422 28
13938 17421 17423 28
13939 17421 17424 28
13940 17421 17425 28
13941 17426 17427 28
13942 17426 17428 28
13943 17426 17429 28
13944 17426 17430 28
13945 17431 17432 28
13946 17431 17433 28
13947 17431 17434 28
13948 17431 17435 28
13949 17436 17437 28
13950 17436 17438 28
13951 17436 17439 28
13952 17436 17440 28
13953 17441 17442 28
13954 17441 17443 28
13955 17441 17444 28
13956 17441 17445 28
13957 17446 17447 28
13958 17446 17448 28
13959 17446 17449 28
13960 17446 17450 28
13961 17451 17452 28
13962 17451 17453 28
13963 17451 17454 28
13964 17451 17455 28
13965 17456 17457 28
13966 17456 17458 28
13967 17456 17459 28
13968 17456 17460 28
13969 17461 17462 28
13970 17461 17463 28
13971 17461 17464 28
13972 17461 17465 28
13973 17466 17467 28
13974 17466 17468 28
13975 17466 17469 28
13976 17466 17470 28
13977 17471 17472 28
13978 17471 17473 28
13979 17471 17474 28
13980 17471 17475 28
13981 17476 17477 28
13982 17476 17478 28
13983 17476 17479 28
13984 17476 17480 28
13985 17481 17482 28
13986 17481 17483 28
13987 17481 17484 28
13988 17481 17485 28
13989 17486 17487 28
13990 17486 17488 28
13991 17486 17489 28
13992 17486 17490 28
13993 17491 17492 28
13994 17491 17493 28
13995 17491 17494 28
13996 17491 17495 28
13997 17496 17497 28
13998 17496 17498 28
13999 17496 17499 28
14000 17496 17500 28
14001 17501 17502 28
14002 17501 17503 28
14003 17501 17504 28
14004 17501 17505 28
14005 17506 17507 28
14006 17506 17508 28
14007 17506 17509 28
14008 17506 17510 28
14009 17511 17512 28
14010 17511 17513 28
14011 17511 17514 28
14012 17511 17515 28
14013 17516 17517 28
14014 17516 17518 28
14015 17516 17519 28
14016 17516 17520 28
14017 17521 17522 28
14018 17521 17523 28
14019 17521 17524 28
14020 17521 17525 28
14021 17526 17527 28
14022 17526 17528 28
14023 17526 17529 28
14024 17526 17530 28
14025 17531 17532 28
14026 17531 17533 28
14027 17531 17534 28
14028 17531 17535 28
14029 17536 17537 28
14030 17536 17538 28
14031 17536 17539 28
14032 17536 17540 28
14033 17541 17542 28
14034 17541 17543 28
14035 17541 17544 28
14036 17541 17545 28
14037 17546 17547 28
14038 17546 17548 28
14039 17546 17549 28
14040 17546 17550 28
14041 17551 17552 28
14042 17551 17553 28
14043 17551 17554 28
14044 17551 17555 28
14045 17556 17557 28
14046 17556 17558 28
14047 17556 17559 28
14048 17556 17560 28
14049 17561 17562 28
14050 17561 17563 28
14051 17561 17564 28
14052 17561 17565 28
14053 17566 17567 28
14054 17566 17568 28
14055 17566 17569 28
14056 17566 17570 28
14057 17571 17572 28
14058 17571 17573 28
14059 17571 17574 28
14060 17571 17575 28
14061 17576 17577 28
14062 17576 17578 28
14063 17576 17579 28
14064 17576 17580 28
14065 17581 17582 28
14066 17581 17583 28
14067 17581 17584 28
14068 17581 17585 28
14069 17586 17587 28
14070 17586 17588 28
14071 17586 17589 28
14072 17586 17590 28
14073 17591 17592 28
14074 17591 17593 28
14075 17591 17594 28
14076 17591 17595 28
14077 17596 17597 28
14078 17596 17598 28
14079 17596 17599 28
14080 17596 17600 28
14081 17601 17602 28
14082 17601 17603 28
14083 17601 17604 28
14084 17601 17605 28
14085 17606 17607 28
14086 17606 17608 28
14087 17606 17609 28
14088 17606 17610 28
14089 17611 17612 28
14090 17611 17613 28
14091 17611 17614 28
14092 17611 17615 28
14093 17616 17617 28
14094 17616 17618 28
14095 17616 17619 28
14096 17616 17620 28
14097 17621 17622 28
14098 17621 17623 28
14099 17621 17624 28
14100 17621 17625 28
14101 17626 17627 28
14102 17626 17628 28
14103 17626 17629 28
14104 17626 17630 28
14105 17631 17632 28
14106 17631 17633 28
14107 17631 17634 28
14108 17631 17635 28
14109 17636 17637 28
14110 17636 17638 28
14111 17636 17639 28
14112 17636 17640 28
14113 17641 17642 28
14114 17641 17643 28
14115 17641 17644 28
14116 17641 17645 28
14117 17646 17647 28
14118 17646 17648 28
14119 17646 17649 28
14120 17646 17650 28
14121 17651 17652 28
14122 17651 17653 28
14123 17651 17654 28
14124 17651 17655 28
14125 17656 17657 28
14126 17656 17658 28
14127 17656 17659 28
14128 17656 17660 28
14129 17661 17662 28
14130 17661 17663 28
14131 17661 17664 28
14132 17661 17665 28
14133 17666 17667 28
14134 17666 17668 28
14135 17666 17669 28
14136 17666 17670 28
14137 17671 17672 28
14138 17671 17673 28
14139 17671 17674 28
14140 17671 17675 28
14141 17676 17677 28
14142 17676 17678 28
14143 17676 17679 28
14144 17676 17680 28
14145 17681 17682 28
14146 17681 17683 28
14147 17681 17684 28
14148 17681 17685 28
14149 17686 17687 28
14150 17686 17688 28
14151 17686 17689 28
14152 17686 17690 28
14153 17691 17692 28
14154 17691 17693 28
14155 17691 17694 28
14156 17691 17695 28
14157 17696 17697 28
14158 17696 17698 28
14159 17696 17699 28
14160 17696 17700 28
14161 17701 17702 28
14162 17701 17703 28
14163 17701 17704 28
14164 17701 17705 28
14165 17706 17707 28
14166 17706 17708 28
14167 17706 17709 28
14168 17706 17710 28
14169 17711 17712 28
14170 17711 17713 28
14171 17711 17714 28
14172 17711 17715 28
14173 17716 17717 28
14174 17716 17718 28
14175 17716 17719 28
14176 17716 17720 28
14177 17721 17722 28
14178 17721 17723 28
14179 17721 17724 28
14180 17721 17725 28
14181 17726 17727 28
14182 17726 17728 28
14183 17726 17729 28
14184 17726 17730 28
14185 17731 17732 28
14186 17731 17733 28
14187 17731 17734 28
14188 17731 17735 28
14189 17736 17737 28
14190 17736 17738 28
14191 17736 17739 28
14192 17736 17740 28
14193 17741 17742 28
14194 17741 17743 28
14195 17741 17744 28
14196 17741 17745 28
14197 17746 17747 28
14198 17746 17748 28
14199 17746 17749 28
14200 17746 17750 28
14201 17751 17752 28
14202 17751 17753 28
14203 17751 17754 28
14204 17751 17755 28
14205 17756 17757 28
14206 17756 17758 28
14207 17756 17759 28
14208 17756 17760 28
14209 17761 17762 28
14210 17761 17763 28
14211 17761 17764 28
14212 17761 17765 28
14213 17766 17767 28
14214 17766 17768 28
14215 17766 17769 28
14216 17766 17770 28
14217 17771 17772 28
14218 17771 17773 28
14219 17771 17774 28
14220 17771 17775 28
14221 17776 17777 28
14222 17776 17778 28
14223 17776 17779 28
14224 17776 17780 28
14225 17781 17782 28
14226 17781 17783 28
14227 17781 17784 28
14228 17781 17785 28
14229 17786 17787 28
14230 17786 17788 28
14231 17786 17789 28
14232 17786 17790 28
14233 17791 17792 28
14234 17791 17793 28
14235 17791 17794 28
14236 17791 17795 28
14237 17796 17797 28
14238 17796 17798 28
14239 17796 17799 28
14240 17796 17800 28
14241 17801 17802 28
14242 17801 17803 28
14243 17801 17804 28
14244 17801 17805 28
14245 17806 17807 28
14246 17806 17808 28
14247 17806 17809 28
14248 17806 17810 28
14249 17811 17812 28
14250 17811 17813 28
14251 17811 17814 28
14252 17811 17815 28
14253 17816 17817 28
14254 17816 17818 28
14255 17816 17819 28
14256 17816 17820 28
14257 17821 17822 28
14258 17821 17823 28
14259 17821 17824 28
14260 17821 17825 28
14261 17826 17827 28
14262 17826 17828 28
14263 17826 17829 28
14264 17826 17830 28
14265 17831 17832 28
14266 17831 17833 28
14267 17831 17834 28
14268 17831 17835 28
14269 17836 17837 28
14270 17836 17838 28
14271 17836 17839 28
14272 17836 17840 28
14273 17841 17842 28
14274 17841 17843 28
14275 17841 17844 28
14276 17841 17845 28
14277 17846 17847 28
14278 17846 17848 28
14279 17846 17849 28
14280 17846 17850 28
14281 17851 17852 28
14282 17851 17853 28
14283 17851 17854 28
14284 17851 17855 28
14285 17856 17857 28
14286 17856 17858 28
14287 17856 17859 28
14288 17856 17860 28
14289 17861 17862 28
14290 17861 17863 28
14291 17861 17864 28
14292 17861 17865 28
14293 17866 17867 28
14294 17866 17868 28
14295 17866 17869 28
14296 17866 17870 28
14297 17871 17872 28
14298 17871 17873 28
14299 17871 17874 28
14300 17871 17875 28
14301 17876 17877 28
14302 17876 17878 28
14303 17876 17879 28
14304 17876 17880 28
14305 17881 17882 28
14306 17881 17883 28
14307 17881 17884 28
14308 17881 17885 28
14309 17886 17887 28
14310 17886 17888 28
14311 17886 17889 28
14312 17886 17890 28
14313 17891 17892 28
14314 17891 17893 28
14315 17891 17894 28
14316 17891 17895 28
14317 17896 17897 28
14318 17896 17898 28
14319 17896 17899 28
14320 17896 17900 28
14321 17901 17902 28
14322 17901 17903 28
14323 17901 17904 28
14324 17901 17905 28
14325 17906 17907 28
14326 17906 17908 28
14327 17906 17909 28
14328 17906 17910 28
14329 17911 17912 28
14330 17911 17913 28
14331 17911 17914 28
14332 17911 17915 28
14333 17916 17917 28
14334 17916 17918 28
14335 17916 17919 28
14336 17916 17920 28
14337 17921 17922 28
14338 17921 17923 28
14339 17921 17924 28
14340 17921 17925 28
14341 17926 17927 28
14342 17926 17928 28
14343 17926 17929 28
14344 17926 17930 28
14345 17931 17932 28
14346 17931 17933 28
14347 17931 17934 28
14348 17931 17935 28
14349 17936 17937 28
14350 17936 17938 28
14351 17936 17939 28
14352 17936 17940 28
14353 17941 17942 28
14354 17941 17943 28
14355 17941 17944 28
14356 17941 17945 28
14357 17946 17947 28
14358 17946 17948 28
14359 17946 17949 28
14360 17946 17950 28
14361 17951 17952 28
14362 17951 17953 28
14363 17951 17954 28
14364 17951 17955 28
14365 17956 17957 28
14366 17956 17958 28
14367 17956 17959 28
14368 17956 17960 28
14369 17961 17962 28
14370 17961 17963 28
14371 17961 17964 28
14372 17961 17965 28
14373 17966 17967 28
14374 17966 17968 28
14375 17966 17969 28
14376 17966 17970 28
14377 17971 17972 28
14378 17971 17973 28
14379 17971 17974 28
14380 17971 17975 28
14381 17976 17977 28
14382 17976 17978 28
14383 17976 17979 28
14384 17976 17980 28
14385 17981 17982 28
14386 17981 17983 28
14387 17981 17984 28
14388 17981 17985 28
14389 17986 17987 28
14390 17986 17988 28
14391 17986 17989 28
14392 17986 17990 28
14393 17991 17992 28
14394 17991 17993 28
14395 17991 17994 28
14396 17991 17995 28
14397 17996 17997 28
14398 17996 17998 28
14399 17996 17999 28
14400 17996 18000 28
14401 18001 18002 28
14402 18001 18003 28
14403 18001 18004 28
14404 18001 18005 28
14405 18006 18007 28
14406 18006 18008 28
14407 18006 18009 28
14408 18006 18010 28
14409 18011 18012 28
14410 18011 18013 28
14411 18011 18014 28
14412 18011 18015 28
14413 18016 18017 28
14414 18016 18018 28
14415 18016 18019 28
14416 18016 18020 28
14417 18021 18022 28
14418 18021 18023 28
14419 18021 18024 28
14420 18021 18025 28
14421 18026 18027 28
14422 18026 18028 28
14423 18026 18029 28
14424 18026 18030 28
14425 18031 18032 28
14426 18031 18033 28
14427 18031 18034 28
14428 18031 18035 28
14429 18036 18037 28
14430 18036 18038 28
14431 18036 18039 28
14432 18036 18040 28
14433 18041 18042 28
14434 18041 18043 28
14435 18041 18044 28
14436 18041 18045 28
14437 18046 18047 28
14438 18046 18048 28
14439 18046 18049 28
14440 18046 18050 28
14441 18051 18052 28
14442 18051 18053 28
14443 18051 18054 28
14444 18051 18055 28
14445 18056 18057 28
14446 18056 18058 28
14447 18056 18059 28
14448 18056 18060 28
14449 18061 18062 28
14450 18061 18063 28
14451 18061 18064 28
14452 18061 18065 28
14453 18066 18067 28
14454 18066 18068 28
14455 18066 18069 28
14456 18066 18070 28
14457 18071 18072 28
14458 18071 18073 28
14459 18071 18074 28
14460 18071 18075 28
14461 18076 18077 28
14462 18076 18078 28
14463 18076 18079 28
14464 18076 18080 28
14465 18081 18082 28
14466 18081 18083 28
14467 18081 18084 28
14468 18081 18085 28
14469 18086 18087 28
14470 18086 18088 28
14471 18086 18089 28
14472 18086 18090 28
14473 18091 18092 28
14474 18091 18093 28
14475 18091 18094 28
14476 18091 18095 28
14477 18096 18097 28
14478 18096 18098 28
14479 18096 18099 28
14480 18096 18100 28
14481 18101 18102 28
14482 18101 18103 28
14483 18101 18104 28
14484 18101 18105 28
14485 18106 18107 28
14486 18106 18108 28
14487 18106 18109 28
14488 18106 18110 28
14489 18111 18112 28
14490 18111 18113 28
14491 18111 18114 28
14492 18111 18115 28
14493 18116 18117 28
14494 18116 18118 28
14495 18116 18119 28
14496 18116 18120 28
14497 18121 18122 28
14498 18121 18123 28
14499 18121 18124 28
14500 18121 18125 28
14501 18126 18127 28
14502 18126 18128 28
14503 18126 18129 28
14504 18126 18130 28
14505 18131 18132 28
14506 18131 18133 28
14507 18131 18134 28
14508 18131 18135 28
14509 18136 18137 28
14510 18136 18138 28
14511 18136 18139 28
14512 18136 18140 28
14513 18141 18142 28
14514 18141 18143 28
14515 18141 18144 28
14516 18141 18145 28
14517 18146 18147 28
14518 18146 18148 28
14519 18146 18149 28
14520 18146 18150 28
14521 18151 18152 28
14522 18151 18153 28
14523 18151 18154 28
14524 18151 18155 28
14525 18156 18157 28
14526 18156 18158 28
14527 18156 18159 28
14528 18156 18160 28
14529 18161 18162 28
14530 18161 18163 28
14531 18161 18164 28
14532 18161 18165 28
14533 18166 18167 28
14534 18166 18168 28
14535 18166 18169 28
14536 18166 18170 28
14537 18171 18172 28
14538 18171 18173 28
14539 18171 18174 28
14540 18171 18175 28
14541 18176 18177 28
14542 18176 18178 28
14543 18176 18179 28
14544 18176 18180 28
14545 18181 18182 28
14546 18181 18183 28
14547 18181 18184 28
14548 18181 18185 28
14549 18186 18187 28
14550 18186 18188 28
14551 18186 18189 28
14552 18186 18190 28
14553 18191 18192 28
14554 18191 18193 28
14555 18191 18194 28
14556 18191 18195 28
14557 18196 18197 28
14558 18196 18198 28
14559 18196 18199 28
14560 18196 18200 28
14561 18201 18202 28
14562 18201 18203 28
14563 18201 18204 28
14564 18201 18205 28
14565 18206 18207 28
14566 18206 18208 28
14567 18206 18209 28
14568 18206 18210 28
14569 18211 18212 28
14570 18211 18213 28
14571 18211 18214 28
14572 18211 18215 28
14573 18216 18217 28
14574 18216 18218 28
14575 18216 18219 28
14576 18216 18220 28
14577 18221 18222 28
14578 18221 18223 28
14579 18221 18224 28
14580 18221 18225 28
14581 18226 18227 28
14582 18226 18228 28
14583 18226 18229 28
14584 18226 18230 28
14585 18231 18232 28
14586 18231 18233 28
14587 18231 18234 28
14588 18231 18235 28
14589 18236 18237 28
14590 18236 18238 28
14591 18236 18239 28
14592 18236 18240 28
14593 18241 18242 28
14594 18241 18243 28
14595 18241 18244 28
14596 18241 18245 28
14597 18246 18247 28
14598 18246 18248 28
14599 18246 18249 28
14600 18246 18250 28
14601 18251 18252 28
14602 18251 18253 28
14603 18251 18254 28
14604 18251 18255 28
14605 18256 18257 28
14606 18256 18258 28
14607 18256 18259 28
14608 18256 18260 28
14609 18261 18262 28
14610 18261 18263 28
14611 18261 18264 28
14612 18261 18265 28
14613 18266 18267 28
14614 18266 18268 28
14615 18266 18269 28
14616 18266 18270 28
14617 18271 18272 28
14618 18271 18273 28
14619 18271 18274 28
14620 18271 18275 28
14621 18276 18277 28
14622 18276 18278 28
14623 18276 18279 28
14624 18276 18280 28
14625 18281 18282 28
14626 18281 18283 28
14627 18281 18284 28
14628 18281 18285 28
14629 18286 18287 28
14630 18286 18288 28
14631 18286 18289 28
14632 18286 18290 28
14633 18291 18292 28
14634 18291 18293 28
14635 18291 18294 28
14636 18291 18295 28
14637 18296 18297 28
14638 18296 18298 28
14639 18296 18299 28
14640 18296 18300 28
14641 18301 18302 28
14642 18301 18303 28
14643 18301 18304 28
14644 18301 18305 28
14645 18306 18307 28
14646 18306 18308 28
14647 18306 18309 28
14648 18306 18310 28
14649 18311 18312 28
14650 18311 18313 28
14651 18311 18314 28
14652 18311 18315 28
14653 18316 18317 28
14654 18316 18318 28
14655 18316 18319 28
14656 18316 18320 28
14657 18321 18322 28
14658 18321 18323 28
14659 18321 18324 28
14660 18321 18325 28
14661 18326 18327 28
14662 18326 18328 28
14663 18326 18329 28
14664 18326 18330 28
14665 18331 18332 28
14666 18331 18333 28
14667 18331 18334 28
14668 18331 18335 28
14669 18336 18337 28
14670 18336 18338 28
14671 18336 18339 28
14672 18336 18340 28
14673 18341 18342 28
14674 18341 18343 28
14675 18341 18344 28
14676 18341 18345 28
14677 18346 18347 28
14678 18346 18348 28
14679 18346 18349 28
14680 18346 18350 28
14681 18351 18352 28
14682 18351 18353 28
14683 18351 18354 28
14684 18351 18355 28
14685 18356 18357 28
14686 18356 18358 28
14687 18356 18359 28
14688 18356 18360 28
14689 18361 18362 28
14690 18361 18363 28
14691 18361 18364 28
14692 18361 18365 28
14693 18366 18367 28
14694 18366 18368 28
14695 18366 18369 28
14696 18366 18370 28
14697 18371 18372 28
14698 18371 18373 28
14699 18371 18374 28
14700 18371 18375 28
14701 18376 18377 28
14702 18376 18378 28
14703 18376 18379 28
14704 18376 18380 28
14705 18381 18382 28
14706 18381 18383 28
14707 18381 18384 28
14708 18381 18385 28
14709 18386 18387 28
14710 18386 18388 28
14711 18386 18389 28
14712 18386 18390 28
14713 18391 18392 28
14714 18391 18393 28
14715 18391 18394 28
14716 18391 18395 28
14717 18396 18397 28
14718 18396 18398 28
14719 18396 18399 28
14720 18396 18400 28
14721 18401 18402 28
14722 18401 18403 28
14723 18401 18404 28
14724 18401 18405 28
14725 18406 18407 28
14726 18406 18408 28
14727 18406 18409 28
14728 18406 18410 28
14729 18411 18412 28
14730 18411 18413 28
14731 18411 18414 28
14732 18411 18415 28
14733 18416 18417 28
14734 18416 18418 28
14735 18416 18419 28
14736 18416 18420 28
14737 18421 18422 28
14738 18421 18423 28
14739 18421 18424 28
14740 18421 18425 28
14741 18426 18427 28
14742 18426 18428 28
14743 18426 18429 28
14744 18426 18430 28
14745 18431 18432 28
14746 18431 18433 28
14747 18431 18434 28
14748 18431 18435 28
14749 18436 18437 28
14750 18436 18438 28
14751 18436 18439 28
14752 18436 18440 28
14753 18441 18442 28
14754 18441 18443 28
14755 18441 18444 28
14756 18441 18445 28
14757 18446 18447 28
14758 18446 18448 28
14759 18446 18449 28
14760 18446 18450 28
14761 18451 18452 28
14762 18451 18453 28
14763 18451 18454 28
14764 18451 18455 28
14765 18456 18457 28
14766 18456 18458 28
14767 18456 18459 28
14768 18456 18460 28
14769 18461 18462 28
14770 18461 18463 28
14771 18461 18464 28
14772 18461 18465 28
14773 18466 18467 28
14774 18466 18468 28
14775 18466 18469 28
14776 18466 18470 28
14777 18471 18472 28
14778 18471 18473 28
14779 18471 18474 28
14780 18471 18475 28
14781 18476 18477 28
14782 18476 18478 28
14783 18476 18479 28
14784 18476 18480 28
14785 18481 18482 28
14786 18481 18483 28
14787 18481 18484 28
14788 18481 18485 28
14789 18486 18487 28
14790 18486 18488 28
14791 18486 18489 28
14792 18486 18490 28
14793 18491 18492 28
14794 18491 18493 28
14795 18491 18494 28
14796 18491 18495 28
14797 18496 18497 28
14798 18496 18498 28
14799 18496 18499 28
14800 18496 18500 28
14801 18501 18502 28
14802 18501 18503 28
14803 18501 18504 28
14804 18501 18505 28
14805 18506 18507 28
14806 18506 18508 28
14807 18506 18509 28
14808 18506 18510 28
14809 18511 18512 28
14810 18511 18513 28
14811 18511 18514 28
14812 18511 18515 28
14813 18516 18517 28
14814 18516 18518 28
14815 18516 18519 28
14816 18516 18520 28
14817 18521 18522 28
14818 18521 18523 28
14819 18521 18524 28
14820 18521 18525 28
14821 18526 18527 28
14822 18526 18528 28
14823 18526 18529 28
14824 18526 18530 28
14825 18531 18532 28
14826 18531 18533 28
14827 18531 18534 28
14828 18531 18535 28
14829 18536 18537 28
14830 18536 18538 28
14831 18536 18539 28
14832 18536 18540 28
14833 18541 18542 28
14834 18541 18543 28
14835 18541 18544 28
14836 18541 18545 28
14837 18546 18547 28
14838 18546 18548 28
14839 18546 18549 28
14840 18546 18550 28
14841 18551 18552 28
14842 18551 18553 28
14843 18551 18554 28
14844 18551 18555 28
14845 18556 18557 28
14846 18556 18558 28
14847 18556 18559 28
14848 18556 18560 28
14849 18561 18562 28
14850 18561 18563 28
14851 18561 18564 28
14852 18561 18565 28
14853 18566 18567 28
14854 18566 18568 28
14855 18566 18569 28
14856 18566 18570 28
14857 18571 18572 28
14858 18571 18573 28
14859 18571 18574 28
14860 18571 18575 28
14861 18576 18577 28
14862 18576 18578 28
14863 18576 18579 28
14864 18576 18580 28
14865 18581 18582 28
14866 18581 18583 28
14867 18581 18584 28
14868 18581 18585 28
14869 18586 18587 28
14870 18586 18588 28
14871 18586 18589 28
14872 18586 18590 28
14873 18591 18592 28
14874 18591 18593 28
14875 18591 18594 28
14876 18591 18595 28
14877 18596 18597 28
14878 18596 18598 28
14879 18596 18599 28
14880 18596 18600 28
14881 18601 18602 28
14882 18601 18603 28
14883 18601 18604 28
14884 18601 18605 28
14885 18606 18607 28
14886 18606 18608 28
14887 18606 18609 28
14888 18606 18610 28
14889 18611 18612 28
14890 18611 18613 28
14891 18611 18614 28
14892 18611 18615 28
14893 18616 18617 28
14894 18616 18618 28
14895 18616 18619 28
14896 18616 18620 28
14897 18621 18622 28
14898 18621 18623 28
14899 18621 18624 28
14900 18621 18625 28
14901 18626 18627 28
14902 18626 18628 28
14903 18626 18629 28
14904 18626 18630 28
14905 18631 18632 28
14906 18631 18633 28
14907 18631 18634 28
14908 18631 18635 28
14909 18636 18637 28
14910 18636 18638 28
14911 18636 18639 28
14912 18636 18640 28
14913 18641 18642 28
14914 18641 18643 28
14915 18641 18644 28
14916 18641 18645 28
14917 18646 18647 28
14918 18646 18648 28
14919 18646 18649 28
14920 18646 18650 28
14921 18651 18652 28
14922 18651 18653 28
14923 18651 18654 28
14924 18651 18655 28
14925 18656 18657 28
14926 18656 18658 28
14927 18656 18659 28
14928 18656 18660 28
14929 18661 18662 28
14930 18661 18663 28
14931 18661 18664 28
14932 18661 18665 28
14933 18666 18667 28
14934 18666 18668 28
14935 18666 18669 28
14936 18666 18670 28
14937 18671 18672 28
14938 18671 18673 28
14939 18671 18674 28
14940 18671 18675 28
14941 18676 18677 28
14942 18676 18678 28
14943 18676 18679 28
14944 18676 18680 28
14945 18681 18682 28
14946 18681 18683 28
14947 18681 18684 28
14948 18681 18685 28
14949 18686 18687 28
14950 18686 18688 28
14951 18686 18689 28
14952 18686 18690 28
14953 18691 18692 28
14954 18691 18693 28
14955 18691 18694 28
14956 18691 18695 28
14957 18696 18697 28
14958 18696 18698 28
14959 18696 18699 28
14960 18696 18700 28
14961 18701 18702 28
14962 18701 18703 28
14963 18701 18704 28
14964 18701 18705 28
14965 18706 18707 28
14966 18706 18708 28
14967 18706 18709 28
14968 18706 18710 28
14969 18711 18712 28
14970 18711 18713 28
14971 18711 18714 28
14972 18711 18715 28
14973 18716 18717 28
14974 18716 18718 28
14975 18716 18719 28
14976 18716 18720 28
14977 18721 18722 28
14978 18721 18723 28
14979 18721 18724 28
14980 18721 18725 28
14981 18726 18727 28
14982 18726 18728 28
14983 18726 18729 28
14984 18726 18730 28
14985 18731 18732 28
14986 18731 18733 28
14987 18731 18734 28
14988 18731 18735 28
14989 18736 18737 28
14990 18736 18738 28
14991 18736 18739 28
14992 18736 18740 28
14993 18741 18742 28
14994 18741 18743 28
14995 18741 18744 28
14996 18741 18745 28
14997 18746 18747 28
14998 18746 18748 28
14999 18746 18749 28
15000 18746 18750 28
15001 18751 18752 28
15002 18751 18753 28
15003 18751 18754 28
15004 18751 18755 28
15005 18756 18757 28
15006 18756 18758 28
15007 18756 18759 28
15008 18756 18760 28
15009 18761 18762 28
15010 18761 18763 28
15011 18761 18764 28
15012 18761 18765 28
15013 18766 18767 28
15014 18766 18768 28
15015 18766 18769 28
15016 18766 18770 28
15017 18771 18772 28
15018 18771 18773 28
15019 18771 18774 28
15020 18771 18775 28
15021 18776 18777 28
15022 18776 18778 28
15023 18776 18779 28
15024 18776 18780 28
15025 18781 18782 28
15026 18781 18783 28
15027 18781 18784 28
15028 18781 18785 28
15029 18786 18787 28
15030 18786 18788 28
15031 18786 18789 28
15032 18786 18790 28
15033 18791 18792 28
15034 18791 18793 28
15035 18791 18794 28
15036 18791 18795 28
15037 18796 18797 28
15038 18796 18798 28
15039 18796 18799 28
15040 18796 18800 28
15041 18801 18802 28
15042 18801 18803 28
15043 18801 18804 28
15044 18801 18805 28
15045 18806 18807 28
15046 18806 18808 28
15047 18806 18809 28
15048 18806 18810 28
15049 18811 18812 28
15050 18811 18813 28
15051 18811 18814 28
15052 18811 18815 28
15053 18816 18817 28
15054 18816 18818 28
15055 18816 18819 28
15056 18816 18820 28
15057 18821 18822 28
15058 18821 18823 28
15059 18821 18824 28
15060 18821 18825 28
15061 18826 18827 28
15062 18826 18828 28
15063 18826 18829 28
15064 18826 18830 28
15065 18831 18832 28
15066 18831 18833 28
15067 18831 18834 28
15068 18831 18835 28
15069 18836 18837 28
15070 18836 18838 28
15071 18836 18839 28
15072 18836 18840 28
15073 18841 18842 28
15074 18841 18843 28
15075 18841 18844 28
15076 18841 18845 28
15077 18846 18847 28
15078 18846 18848 28
15079 18846 18849 28
15080 18846 18850 28
15081 18851 18852 28
15082 18851 18853 28
15083 18851 18854 28
15084 18851 18855 28
15085 18856 18857 28
15086 18856 18858 28
15087 18856 18859 28
15088 18856 18860 28
15089 18861 18862 28
15090 18861 18863 28
15091 18861 18864 28
15092 18861 18865 28
15093 18866 18867 28
15094 18866 18868 28
15095 18866 18869 28
15096 18866 18870 28
15097 18871 18872 28
15098 18871 18873 28
15099 18871 18874 28
15100 18871 18875 28
15101 18876 18877 28
15102 18876 18878 28
15103 18876 18879 28
15104 18876 18880 28
15105 18881 18882 28
15106 18881 18883 28
15107 18881 18884 28
15108 18881 18885 28
15109 18886 18887 28
15110 18886 18888 28
15111 18886 18889 28
15112 18886 18890 28
15113 18891 18892 28
15114 18891 18893 28
15115 18891 18894 28
15116 18891 18895 28
15117 18896 18897 28
15118 18896 18898 28
15119 18896 18899 28
15120 18896 18900 28
15121 18901 18902 28
15122 18901 18903 28
15123 18901 18904 28
15124 18901 18905 28
15125 18906 18907 28
15126 18906 18908 28
15127 18906 18909 28
15128 18906 18910 28
15129 18911 18912 28
15130 18911 18913 28
15131 18911 18914 28
15132 18911 18915 28
15133 18916 18917 28
15134 18916 18918 28
15135 18916 18919 28
15136 18916 18920 28
15137 18921 18922 28
15138 18921 18923 28
15139 18921 18924 28
15140 18921 18925 28
15141 18926 18927 28
15142 18926 18928 28
15143 18926 18929 28
15144 18926 18930 28
15145 18931 18932 28
15146 18931 18933 28
15147 18931 18934 28
15148 18931 18935 28
15149 18936 18937 28
15150 18936 18938 28
15151 18936 18939 28
15152 18936 18940 28
15153 18941 18942 28
15154 18941 18943 28
15155 18941 18944 28
15156 18941 18945 28
15157 18946 18947 28
15158 18946 18948 28
15159 18946 18949 28
15160 18946 18950 28
15161 18951 18952 28
15162 18951 18953 28
15163 18951 18954 28
15164 18951 18955 28
15165 18956 18957 28
15166 18956 18958 28
15167 18956 18959 28
15168 18956 18960 28
15169 18961 18962 28
15170 18961 18963 28
15171 18961 18964 28
15172 18961 18965 28
15173 18966 18967 28
15174 18966 18968 28
15175 18966 18969 28
15176 18966 18970 28
15177 18971 18972 28
15178 18971 18973 28
15179 18971 18974 28
15180 18971 18975 28
15181 18976 18977 28
15182 18976 18978 28
15183 18976 18979 28
15184 18976 18980 28
15185 18981 18982 28
15186 18981 18983 28
15187 18981 18984 28
15188 18981 18985 28
15189 18986 18987 28
15190 18986 18988 28
15191 18986 18989 28
15192 18986 18990 28
15193 18991 18992 28
15194 18991 18993 28
15195 18991 18994 28
15196 18991 18995 28
15197 18996 18997 28
15198 18996 18998 28
15199 18996 18999 28
15200 18996 19000 28
15201 19001 19002 28
15202 19001 19003 28
15203 19001 19004 28
15204 19001 19005 28
15205 19006 19007 28
15206 19006 19008 28
15207 19006 19009 28
15208 19006 19010 28
15209 19011 19012 28
15210 19011 19013 28
15211 19011 19014 28
15212 19011 19015 28
15213 19016 19017 28
15214 19016 19018 28
15215 19016 19019 28
15216 19016 19020 28
15217 19021 19022 28
15218 19021 19023 28
15219 19021 19024 28
15220 19021 19025 28
15221 19026 19027 28
15222 19026 19028 28
15223 19026 19029 28
15224 19026 19030 28
15225 19031 19032 28
15226 19031 19033 28
15227 19031 19034 28
15228 19031 19035 28
15229 19036 19037 28
15230 19036 19038 28
15231 19036 19039 28
15232 19036 19040 28
15233 19041 19042 28
15234 19041 19043 28
15235 19041 19044 28
15236 19041 19045 28
15237 19046 19047 28
15238 19046 19048 28
15239 19046 19049 28
15240 19046 19050 28
15241 19051 19052 28
15242 19051 19053 28
15243 19051 19054 28
15244 19051 19055 28
15245 19056 19057 28
15246 19056 19058 28
15247 19056 19059 28
15248 19056 19060 28
15249 19061 19062 28
15250 19061 19063 28
15251 19061 19064 28
15252 19061 19065 28
15253 19066 19067 28
15254 19066 19068 28
15255 19066 19069 28
15256 19066 19070 28
15257 19071 19072 28
15258 19071 19073 28
15259 19071 19074 28
15260 19071 19075 28
15261 19076 19077 28
15262 19076 19078 28
15263 19076 19079 28
15264 19076 19080 28
15265 19081 19082 28
15266 19081 19083 28
15267 19081 19084 28
15268 19081 19085 28
15269 19086 19087 28
15270 19086 19088 28
15271 19086 19089 28
15272 19086 19090 28
15273 19091 19092 28
15274 19091 19093 28
15275 19091 19094 28
15276 19091 19095 28
15277 19096 19097 28
15278 19096 19098 28
15279 19096 19099 28
15280 19096 19100 28
15281 19101 19102 28
15282 19101 19103 28
15283 19101 19104 28
15284 19101 19105 28
15285 19106 19107 28
15286 19106 19108 28
15287 19106 19109 28
15288 19106 19110 28
15289 19111 19112 28
15290 19111 19113 28
15291 19111 19114 28
15292 19111 19115 28
15293 19116 19117 28
15294 19116 19118 28
15295 19116 19119 28
15296 19116 19120 28
15297 19121 19122 28
15298 19121 19123 28
15299 19121 19124 28
15300 19121 19125 28
15301 19126 19127 28
15302 19126 19128 28
15303 19126 19129 28
15304 19126 19130 28
15305 19131 19132 28
15306 19131 19133 28
15307 19131 19134 28
15308 19131 19135 28
15309 19136 19137 28
15310 19136 19138 28
15311 19136 19139 28
15312 19136 19140 28
15313 19141 19142 28
15314 19141 19143 28
15315 19141 19144 28
15316 19141 19145 28
15317 19146 19147 28
15318 19146 19148 28
15319 19146 19149 28
15320 19146 19150 28
15321 19151 19152 28
15322 19151 19153 28
15323 19151 19154 28
15324 19151 19155 28
15325 19156 19157 28
15326 19156 19158 28
15327 19156 19159 28
15328 19156 19160 28
15329 19161 19162 28
15330 19161 19163 28
15331 19161 19164 28
15332 19161 19165 28
15333 19166 19167 28
15334 19166 19168 28
15335 19166 19169 28
15336 19166 19170 28
15337 19171 19172 28
15338 19171 19173 28
15339 19171 19174 28
15340 19171 19175 28
15341 19176 19177 28
15342 19176 19178 28
15343 19176 19179 28
15344 19176 19180 28
15345 19181 19182 28
15346 19181 19183 28
15347 19181 19184 28
15348 19181 19185 28
15349 19186 19187 28
15350 19186 19188 28
15351 19186 19189 28
15352 19186 19190 28
15353 19191 19192 28
15354 19191 19193 28
15355 19191 19194 28
15356 19191 19195 28
15357 19196 19197 28
15358 19196 19198 28
15359 19196 19199 28
15360 19196 19200 28
15361 19201 19202 28
15362 19201 19203 28
15363 19201 19204 28
15364 19201 19205 28
15365 19206 19207 28
15366 19206 19208 28
15367 19206 19209 28
15368 19206 19210 28
15369 19211 19212 28
15370 19211 19213 28
15371 19211 19214 28
15372 19211 19215 28
15373 19216 19217 28
15374 19216 19218 28
15375 19216 19219 28
15376 19216 19220 28
15377 19221 19222 28
15378 19221 19223 28
15379 19221 19224 28
15380 19221 19225 28
15381 19226 19227 28
15382 19226 19228 28
15383 19226 19229 28
15384 19226 19230 28
15385 19231 19232 28
15386 19231 19233 28
15387 19231 19234 28
15388 19231 19235 28
15389 19236 19237 28
15390 19236 19238 28
15391 19236 19239 28
15392 19236 19240 28
15393 19241 19242 28
15394 19241 19243 28
15395 19241 19244 28
15396 19241 19245 28
15397 19246 19247 28
15398 19246 19248 28
15399 19246 19249 28
15400 19246 19250 28
15401 19251 19252 28
15402 19251 19253 28
15403 19251 19254 28
15404 19251 19255 28
15405 19256 19257 28
15406 19256 19258 28
15407 19256 19259 28
15408 19256 19260 28
15409 19261 19262 28
15410 19261 19263 28
15411 19261 19264 28
15412 19261 19265 28
15413 19266 19267 28
15414 19266 19268 28
15415 19266 19269 28
15416 19266 19270 28
15417 19271 19272 28
15418 19271 19273 28
15419 19271 19274 28
15420 19271 19275 28
15421 19276 19277 28
15422 19276 19278 28
15423 19276 19279 28
15424 19276 19280 28
15425 19281 19282 28
15426 19281 19283 28
15427 19281 19284 28
15428 19281 19285 28
15429 19286 19287 28
15430 19286 19288 28
15431 19286 19289 28
15432 19286 19290 28
15433 19291 19292 28
15434 19291 19293 28
15435 19291 19294 28
15436 19291 19295 28
15437 19296 19297 28
15438 19296 19298 28
15439 19296 19299 28
15440 19296 19300 28
15441 19301 19302 28
15442 19301 19303 28
15443 19301 19304 28
15444 19301 19305 28
15445 19306 19307 28
15446 19306 19308 28
15447 19306 19309 28
15448 19306 19310 28
15449 19311 19312 28
15450 19311 19313 28
15451 19311 19314 28
15452 19311 19315 28
15453 19316 19317 28
15454 19316 19318 28
15455 19316 19319 28
15456 19316 19320 28
15457 19321 19322 28
15458 19321 19323 28
15459 19321 19324 28
15460 19321 19325 28
15461 19326 19327 28
15462 19326 19328 28
15463 19326 19329 28
15464 19326 19330 28
15465 19331 19332 28
15466 19331 19333 28
15467 19331 19334 28
15468 19331 19335 28
15469 19336 19337 28
15470 19336 19338 28
15471 19336 19339 28
15472 19336 19340 28
15473 19341 19342 28
15474 19341 19343 28
15475 19341 19344 28
15476 19341 19345 28
15477 19346 19347 28
15478 19346 19348 28
15479 19346 19349 28
15480 19346 19350 28
15481 19351 19352 28
15482 19351 19353 28
15483 19351 19354 28
15484 19351 19355 28
15485 19356 19357 28
15486 19356 19358 28
15487 19356 19359 28
15488 19356 19360 28
15489 19361 19362 28
15490 19361 19363 28
15491 19361 19364 28
15492 19361 19365 28
15493 19366 19367 28
15494 19366 19368 28
15495 19366 19369 28
15496 19366 19370 28
15497 19371 19372 28
15498 19371 19373 28
15499 19371 19374 28
15500 19371 19375 28
15501 19376 19377 28
15502 19376 19378 28
15503 19376 19379 28
15504 19376 19380 28
15505 19381 19382 28
15506 19381 19383 28
15507 19381 19384 28
15508 19381 19385 28
15509 19386 19387 28
15510 19386 19388 28
15511 19386 19389 28
15512 19386 19390 28
15513 19391 19392 28
15514 19391 19393 28
15515 19391 19394 28
15516 19391 19395 28
15517 19396 19397 28
15518 19396 19398 28
15519 19396 19399 28
15520 19396 19400 28
15521 19401 19402 28
15522 19401 19403 28
15523 19401 19404 28
15524 19401 19405 28
15525 19406 19407 28
15526 19406 19408 28
15527 19406 19409 28
15528 19406 19410 28
15529 19411 19412 28
15530 19411 19413 28
15531 19411 19414 28
15532 19411 19415 28
15533 19416 19417 28
15534 19416 19418 28
15535 19416 19419 28
15536 19416 19420 28
15537 19421 19422 28
15538 19421 19423 28
15539 19421 19424 28
15540 19421 19425 28
15541 19426 19427 28
15542 19426 19428 28
15543 19426 19429 28
15544 19426 19430 28
15545 19431 19432 28
15546 19431 19433 28
15547 19431 19434 28
15548 19431 19435 28
15549 19436 19437 28
15550 19436 19438 28
15551 19436 19439 28
15552 19436 19440 28
15553 19441 19442 28
15554 19441 19443 28
15555 19441 19444 28
15556 19441 19445 28
15557 19446 19447 28
15558 19446 19448 28
15559 19446 19449 28
15560 19446 19450 28
15561 19451 19452 28
15562 19451 19453 28
15563 19451 19454 28
15564 19451 19455 28
15565 19456 19457 28
15566 19456 19458 28
15567 19456 19459 28
15568 19456 19460 28
15569 19461 19462 28
15570 19461 19463 28
15571 19461 19464 28
15572 19461 19465 28
15573 19466 19467 28
15574 19466 19468 28
15575 19466 19469 28
15576 19466 19470 28
15577 19471 19472 28
15578 19471 19473 28
15579 19471 19474 28
15580 19471 19475 28
15581 19476 19477 28
15582 19476 19478 28
15583 19476 19479 28
15584 19476 19480 28
15585 19481 19482 28
15586 19481 19483 28
15587 19481 19484 28
15588 19481 19485 28
15589 19486 19487 28
15590 19486 19488 28
15591 19486 19489 28
15592 19486 19490 28
15593 19491 19492 28
15594 19491 19493 28
15595 19491 19494 28
15596 19491 19495 28
15597 19496 19497 28
15598 19496 19498 28
15599 19496 19499 28
15600 19496 19500 28
15601 19501 19502 28
15602 19501 19503 28
15603 19501 19504 28
15604 19501 19505 28
15605 19506 19507 28
15606 19506 19508 28
15607 19506 19509 28
15608 19506 19510 28
15609 19511 19512 28
15610 19511 19513 28
15611 19511 19514 28
15612 19511 19515 28
15613 19516 19517 28
15614 19516 19518 28
15615 19516 19519 28
15616 19516 19520 28
15617 19521 19522 28
15618 19521 19523 28
15619 19521 19524 28
15620 19521 19525 28
15621 19526 19527 28
15622 19526 19528 28
15623 19526 19529 28
15624 19526 19530 28
15625 19531 19532 28
15626 19531 19533 28
15627 19531 19534 28
15628 19531 19535 28
15629 19536 19537 28
15630 19536 19538 28
15631 19536 19539 28
15632 19536 19540 28
15633 19541 19542 28
15634 19541 19543 28
15635 19541 19544 28
15636 19541 19545 28
15637 19546 19547 28
15638 19546 19548 28
15639 19546 19549 28
15640 19546 19550 28
15641 19551 19552 28
15642 19551 19553 28
15643 19551 19554 28
15644 19551 19555 28
15645 19556 19557 28
15646 19556 19558 28
15647 19556 19559 28
15648 19556 19560 28
15649 19561 19562 28
15650 19561 19563 28
15651 19561 19564 28
15652 19561 19565 28
15653 19566 19567 28
15654 19566 19568 28
15655 19566 19569 28
15656 19566 19570 28
15657 19571 19572 28
15658 19571 19573 28
15659 19571 19574 28
15660 19571 19575 28
15661 19576 19577 28
15662 19576 19578 28
15663 19576 19579 28
15664 19576 19580 28
15665 19581 19582 28
15666 19581 19583 28
15667 19581 19584 28
15668 19581 19585 28
15669 19586 19587 28
15670 19586 19588 28
15671 19586 19589 28
15672 19586 19590 28
15673 19591 19592 28
15674 19591 19593 28
15675 19591 19594 28
15676 19591 19595 28
15677 19596 19597 28
15678 19596 19598 28
15679 19596 19599 28
15680 19596 19600 28
15681 19601 19602 28
15682 19601 19603 28
15683 19601 19604 28
15684 19601 19605 28
15685 19606 19607 28
15686 19606 19608 28
15687 19606 19609 28
15688 19606 19610 28
15689 19611 19612 28
15690 19611 19613 28
15691 19611 19614 28
15692 19611 19615 28
15693 19616 19617 28
15694 19616 19618 28
15695 19616 19619 28
15696 19616 19620 28
15697 19621 19622 28
15698 19621 19623 28
15699 19621 19624 28
15700 19621 19625 28
15701 19626 19627 28
15702 19626 19628 28
15703 19626 19629 28
15704 19626 19630 28
15705 19631 19632 28
15706 19631 19633 28
15707 19631 19634 28
15708 19631 19635 28
15709 19636 19637 28
15710 19636 19638 28
15711 19636 19639 28
15712 19636 19640 28
15713 19641 19642 28
15714 19641 19643 28
15715 19641 19644 28
15716 19641 19645 28
15717 19646 19647 28
15718 19646 19648 28
15719 19646 19649 28
15720 19646 19650 28
15721 19651 19652 28
15722 19651 19653 28
15723 19651 19654 28
15724 19651 19655 28
15725 19656 19657 28
15726 19656 19658 28
15727 19656 19659 28
15728 19656 19660 28
15729 19661 19662 28
15730 19661 19663 28
15731 19661 19664 28
15732 19661 19665 28
15733 19666 19667 28
15734 19666 19668 28
15735 19666 19669 28
15736 19666 19670 28
15737 19671 19672 28
15738 19671 19673 28
15739 19671 19674 28
15740 19671 19675 28
15741 19676 19677 28
15742 19676 19678 28
15743 19676 19679 28
15744 19676 19680 28
15745 19681 19682 28
15746 19681 19683 28
15747 19681 19684 28
15748 19681 19685 28
15749 19686 19687 28
15750 19686 19688 28
15751 19686 19689 28
15752 19686 19690 28
15753 19691 19692 28
15754 19691 19693 28
15755 19691 19694 28
15756 19691 19695 28
15757 19696 19697 28
15758 19696 19698 28
15759 19696 19699 28
15760 19696 19700 28
15761 19701 19702 28
15762 19701 19703 28
15763 19701 19704 28
15764 19701 19705 28
15765 19706 19707 28
15766 19706 19708 28
15767 19706 19709 28
15768 19706 19710 28
15769 19711 19712 28
15770 19711 19713 28
15771 19711 19714 28
15772 19711 19715 28
15773 19716 19717 28
15774 19716 19718 28
15775 19716 19719 28
15776 19716 19720 28
15777 19721 19722 28
15778 19721 19723 28
15779 19721 19724 28
15780 19721 19725 28
15781 19726 19727 28
15782 19726 19728 28
15783 19726 19729 28
15784 19726 19730 28
15785 19731 19732 28
15786 19731 19733 28
15787 19731 19734 28
15788 19731 19735 28
15789 19736 19737 28
15790 19736 19738 28
15791 19736 19739 28
15792 19736 19740 28
15793 19741 19742 28
15794 19741 19743 28
15795 19741 19744 28
15796 19741 19745 28
15797 19746 19747 28
15798 19746 19748 28
15799 19746 19749 28
15800 19746 19750 28
15801 19751 19752 28
15802 19751 19753 28
15803 19751 19754 28
15804 19751 19755 28
15805 19756 19757 28
15806 19756 19758 28
15807 19756 19759 28
15808 19756 19760 28
15809 19761 19762 28
15810 19761 19763 28
15811 19761 19764 28
15812 19761 19765 28
15813 19766 19767 28
15814 19766 19768 28
15815 19766 19769 28
15816 19766 19770 28
15817 19771 19772 28
15818 19771 19773 28
15819 19771 19774 28
15820 19771 19775 28
15821 19776 19777 28
15822 19776 19778 28
15823 19776 19779 28
15824 19776 19780 28
15825 19781 19782 28
15826 19781 19783 28
15827 19781 19784 28
15828 19781 19785 28
15829 19786 19787 28
15830 19786 19788 28
15831 19786 19789 28
15832 19786 19790 28
15833 19791 19792 28
15834 19791 19793 28
15835 19791 19794 28
15836 19791 19795 28
15837 19796 19797 28
15838 19796 19798 28
15839 19796 19799 28
15840 19796 19800 28
15841 19801 19802 28
15842 19801 19803 28
15843 19801 19804 28
15844 19801 19805 28
15845 19806 19807 28
15846 19806 19808 28
15847 19806 19809 28
15848 19806 19810 28
15849 19811 19812 28
15850 19811 19813 28
15851 19811 19814 28
15852 19811 19815 28
15853 19816 19817 28
15854 19816 19818 28
15855 19816 19819 28
15856 19816 19820 28
15857 19821 19822 28
15858 19821 19823 28
15859 19821 19824 28
15860 19821 19825 28
15861 19826 19827 28
15862 19826 19828 28
15863 19826 19829 28
15864 19826 19830 28
15865 19831 19832 28
15866 19831 19833 28
15867 19831 19834 28
15868 19831 19835 28
15869 19836 19837 28
15870 19836 19838 28
15871 19836 19839 28
15872 19836 19840 28
15873 19841 19842 28
15874 19841 19843 28
15875 19841 19844 28
15876 19841 19845 28
15877 19846 19847 28
15878 19846 19848 28
15879 19846 19849 28
15880 19846 19850 28
15881 19851 19852 28
15882 19851 19853 28
15883 19851 19854 28
15884 19851 19855 28
15885 19856 19857 28
15886 19856 19858 28
15887 19856 19859 28
15888 19856 19860 28
15889 19861 19862 28
15890 19861 19863 28
15891 19861 19864 28
15892 19861 19865 28
15893 19866 19867 28
15894 19866 19868 28
15895 19866 19869 28
15896 19866 19870 28
15897 19871 19872 28
15898 19871 19873 28
15899 19871 19874 28
15900 19871 19875 28
15901 19876 19877 28
15902 19876 19878 28
15903 19876 19879 28
15904 19876 19880 28
15905 19881 19882 28
15906 19881 19883 28
15907 19881 19884 28
15908 19881 19885 28
15909 19886 19887 28
15910 19886 19888 28
15911 19886 19889 28
15912 19886 19890 28
15913 19891 19892 28
15914 19891 19893 28
15915 19891 19894 28
15916 19891 19895 28
15917 19896 19897 28
15918 19896 19898 28
15919 19896 19899 28
15920 19896 19900 28
15921 19901 19902 28
15922 19901 19903 28
15923 19901 19904 28
15924 19901 19905 28
15925 19906 19907 28
15926 19906 19908 28
15927 19906 19909 28
15928 19906 19910 28
15929 19911 19912 28
15930 19911 19913 28
15931 19911 19914 28
15932 19911 19915 28
15933 19916 19917 28
15934 19916 19918 28
15935 19916 19919 28
15936 19916 19920 28
15937 19921 19922 28
15938 19921 19923 28
15939 19921 19924 28
15940 19921 19925 28
15941 19926 19927 28
15942 19926 19928 28
15943 19926 19929 28
15944 19926 19930 28
15945 19931 19932 28
15946 19931 19933 28
15947 19931 19934 28
15948 19931 19935 28
15949 19936 19937 28
15950 19936 19938 28
15951 19936 19939 28
15952 19936 19940 28
15953 19941 19942 28
15954 19941 19943 28
15955 19941 19944 28
15956 19941 19945 28
15957 19946 19947 28
15958 19946 19948 28
15959 19946 19949 28
15960 19946 19950 28
15961 19951 19952 28
15962 19951 19953 28
15963 19951 19954 28
15964 19951 19955 28
15965 19956 19957 28
15966 19956 19958 28
15967 19956 19959 28
15968 19956 19960 28
15969 19961 19962 28
15970 19961 19963 28
15971 19961 19964 28
15972 19961 19965 28
15973 19966 19967 28
15974 19966 19968 28
15975 19966 19969 28
15976 19966 19970 28
15977 19971 19972 28
15978 19971 19973 28
15979 19971 19974 28
15980 19971 19975 28
15981 19976 19977 28
15982 19976 19978 28
15983 19976 19979 28
15984 19976 19980 28
15985 19981 19982 28
15986 19981 19983 28
15987 19981 19984 28
15988 19981 19985 28
15989 19986 19987 28
15990 19986 19988 28
15991 19986 19989 28
15992 19986 19990 28
15993 19991 19992 28
15994 19991 19993 28
15995 19991 19994 28
15996 19991 19995 28
15997 19996 19997 28
15998 19996 19998 28
15999 19996 19999 28
16000 19996 20000 28
16001 20001 20002 28
16002 20001 20003 28
16003 20001 20004 28
16004 20001 20005 28
16005 20006 20007 28
16006 20006 20008 28
16007 20006 20009 28
16008 20006 20010 28
16009 20011 20012 28
16010 20011 20013 28
16011 20011 20014 28
16012 20011 20015 28
16013 20016 20017 28
16014 20016 20018 28
16015 20016 20019 28
16016 20016 20020 28
16017 20021 20022 28
16018 20021 20023 28
16019 20021 20024 28
16020 20021 20025 28
16021 20026 20027 28
16022 20026 20028 28
16023 20026 20029 28
16024 20026 20030 28
16025 20031 20032 28
16026 20031 20033 28
16027 20031 20034 28
16028 20031 20035 28
16029 20036 20037 28
16030 20036 20038 28
16031 20036 20039 28
16032 20036 20040 28
16033 20041 20042 28
16034 20041 20043 28
16035 20041 20044 28
16036 20041 20045 28
16037 20046 20047 28
16038 20046 20048 28
16039 20046 20049 28
16040 20046 20050 28
16041 20051 20052 28
16042 20051 20053 28
16043 20051 20054 28
16044 20051 20055 28
16045 20056 20057 28
16046 20056 20058 28
16047 20056 20059 28
16048 20056 20060 28
16049 20061 20062 28
16050 20061 20063 28
16051 20061 20064 28
16052 20061 20065 28
16053 20066 20067 28
16054 20066 20068 28
16055 20066 20069 28
16056 20066 20070 28
16057 20071 20072 28
16058 20071 20073 28
16059 20071 20074 28
16060 20071 20075 28
16061 20076 20077 28
16062 20076 20078 28
16063 20076 20079 28
16064 20076 20080 28
16065 20081 20082 28
16066 20081 20083 28
16067 20081 20084 28
16068 20081 20085 28
16069 20086 20087 28
16070 20086 20088 28
16071 20086 20089 28
16072 20086 20090 28
16073 20091 20092 28
16074 20091 20093 28
16075 20091 20094 28
16076 20091 20095 28
16077 20096 20097 28
16078 20096 20098 28
16079 20096 20099 28
16080 20096 20100 28
16081 20101 20102 28
16082 20101 20103 28
16083 20101 20104 28
16084 20101 20105 28
16085 20106 20107 28
16086 20106 20108 28
16087 20106 20109 28
16088 20106 20110 28
16089 20111 20112 28
16090 20111 20113 28
16091 20111 20114 28
16092 20111 20115 28
16093 20116 20117 28
16094 20116 20118 28
16095 20116 20119 28
16096 20116 20120 28
16097 20121 20122 28
16098 20121 20123 28
16099 20121 20124 28
16100 20121 20125 28
16101 20126 20127 28
16102 20126 20128 28
16103 20126 20129 28
16104 20126 20130 28
16105 20131 20132 28
16106 20131 20133 28
16107 20131 20134 28
16108 20131 20135 28
16109 20136 20137 28
16110 20136 20138 28
16111 20136 20139 28
16112 20136 20140 28
16113 20141 20142 28
16114 20141 20143 28
16115 20141 20144 28
16116 20141 20145 28
16117 20146 20147 28
16118 20146 20148 28
16119 20146 20149 28
16120 20146 20150 28
16121 20151 20152 28
16122 20151 20153 28
16123 20151 20154 28
16124 20151 20155 28
16125 20156 20157 28
16126 20156 20158 28
16127 20156 20159 28
16128 20156 20160 28
16129 20161 20162 28
16130 20161 20163 28
16131 20161 20164 28
16132 20161 20165 28
16133 20166 20167 28
16134 20166 20168 28
16135 20166 20169 28
16136 20166 20170 28
16137 20171 20172 28
16138 20171 20173 28
16139 20171 20174 28
16140 20171 20175 28
16141 20176 20177 28
16142 20176 20178 28
16143 20176 20179 28
16144 20176 20180 28
16145 20181 20182 28
16146 20181 20183 28
16147 20181 20184 28
16148 20181 20185 28
16149 20186 20187 28
16150 20186 20188 28
16151 20186 20189 28
16152 20186 20190 28
16153 20191 20192 28
16154 20191 20193 28
16155 20191 20194 28
16156 20191 20195 28
16157 20196 20197 28
16158 20196 20198 28
16159 20196 20199 28
16160 20196 20200 28
16161 20201 20202 28
16162 20201 20203 28
16163 20201 20204 28
16164 20201 20205 28
16165 20206 20207 28
16166 20206 20208 28
16167 20206 20209 28
16168 20206 20210 28
16169 20211 20212 28
16170 20211 20213 28
16171 20211 20214 28
16172 20211 20215 28
16173 20216 20217 28
16174 20216 20218 28
16175 20216 20219 28
16176 20216 20220 28
16177 20221 20222 28
16178 20221 20223 28
16179 20221 20224 28
16180 20221 20225 28
16181 20226 20227 28
16182 20226 20228 28
16183 20226 20229 28
16184 20226 20230 28
16185 20231 20232 28
16186 20231 20233 28
16187 20231 20234 28
16188 20231 20235 28
16189 20236 20237 28
16190 20236 20238 28
16191 20236 20239 28
16192 20236 20240 28
16193 20241 20242 28
16194 20241 20243 28
16195 20241 20244 28
16196 20241 20245 28
16197 20246 20247 28
16198 20246 20248 28
16199 20246 20249 28
16200 20246 20250 28
16201 20251 20252 28
16202 20251 20253 28
16203 20251 20254 28
16204 20251 20255 28
16205 20256 20257 28
16206 20256 20258 28
16207 20256 20259 28
16208 20256 20260 28
16209 20261 20262 28
16210 20261 20263 28
16211 20261 20264 28
16212 20261 20265 28
16213 20266 20267 28
16214 20266 20268 28
16215 20266 20269 28
16216 20266 20270 28
16217 20271 20272 28
16218 20271 20273 28
16219 20271 20274 28
16220 20271 20275 28
16221 20276 20277 28
16222 20276 20278 28
16223 20276 20279 28
16224 20276 20280 28
16225 20281 20282 28
16226 20281 20283 28
16227 20281 20284 28
16228 20281 20285 28
16229 20286 20287 28
16230 20286 20288 28
16231 20286 20289 28
16232 20286 20290 28
16233 20291 20292 28
16234 20291 20293 28
16235 20291 20294 28
16236 20291 20295 28
16237 20296 20297 28
16238 20296 20298 28
16239 20296 20299 28
16240 20296 20300 28
16241 20301 20302 28
16242 20301 20303 28
16243 20301 20304 28
16244 20301 20305 28
16245 20306 20307 28
16246 20306 20308 28
16247 20306 20309 28
16248 20306 20310 28
16249 20311 20312 28
16250 20311 20313 28
16251 20311 20314 28
16252 20311 20315 28
16253 20316 20317 28
16254 20316 20318 28
16255 20316 20319 28
16256 20316 20320 28
16257 20321 20322 28
16258 20321 20323 28
16259 20321 20324 28
16260 20321 20325 28
16261 20326 20327 28
16262 20326 20328 28
16263 20326 20329 28
16264 20326 20330 28
16265 20331 20332 28
16266 20331 20333 28
16267 20331 20334 28
16268 20331 20335 28
16269 20336 20337 28
16270 20336 20338 28
16271 20336 20339 28
16272 20336 20340 28
16273 20341 20342 28
16274 20341 20343 28
16275 20341 20344 28
16276 20341 20345 28
16277 20346 20347 28
16278 20346 20348 28
16279 20346 20349 28
16280 20346 20350 28
16281 20351 20352 28
16282 20351 20353 28
16283 20351 20354 28
16284 20351 20355 28
16285 20356 20357 28
16286 20356 20358 28
16287 20356 20359 28
16288 20356 20360 28
16289 20361 20362 28
16290 20361 20363 28
16291 20361 20364 28
16292 20361 20365 28
16293 20366 20367 28
16294 20366 20368 28
16295 20366 20369 28
16296 20366 20370 28
16297 20371 20372 28
16298 20371 20373 28
16299 20371 20374 28
16300 20371 20375 28
16301 20376 20377 28
16302 20376 20378 28
16303 20376 20379 28
16304 20376 20380 28
16305 20381 20382 28
16306 20381 20383 28
16307 20381 20384 28
16308 20381 20385 28
16309 20386 20387 28
16310 20386 20388 28
16311 20386 20389 28
16312 20386 20390 28
16313 20391 20392 28
16314 20391 20393 28
16315 20391 20394 28
16316 20391 20395 28
16317 20396 20397 28
16318 20396 20398 28
16319 20396 20399 28
16320 20396 20400 28
16321 20401 20402 28
16322 20401 20403 28
16323 20401 20404 28
16324 20401 20405 28
16325 20406 20407 28
16326 20406 20408 28
16327 20406 20409 28
16328 20406 20410 28
16329 20411 20412 28
16330 20411 20413 28
16331 20411 20414 28
16332 20411 20415 28
16333 20416 20417 28
16334 20416 20418 28
16335 20416 20419 28
16336 20416 20420 28
16337 20421 20422 28
16338 20421 20423 28
16339 20421 20424 28
16340 20421 20425 28
16341 20426 20427 28
16342 20426 20428 28
16343 20426 20429 28
16344 20426 20430 28
16345 20431 20432 28
16346 20431 20433 28
16347 20431 20434 28
16348 20431 20435 28
16349 20436 20437 28
16350 20436 20438 28
16351 20436 20439 28
16352 20436 20440 28
16353 20441 20442 28
16354 20441 20443 28
16355 20441 20444 28
16356 20441 20445 28
16357 20446 20447 28
16358 20446 20448 28
16359 20446 20449 28
16360 20446 20450 28
16361 20451 20452 28
16362 20451 20453 28
16363 20451 20454 28
16364 20451 20455 28
16365 20456 20457 28
16366 20456 20458 28
16367 20456 20459 28
16368 20456 20460 28
16369 20461 20462 28
16370 20461 20463 28
16371 20461 20464 28
16372 20461 20465 28
16373 20466 20467 28
16374 20466 20468 28
16375 20466 20469 28
16376 20466 20470 28
16377 20471 20472 28
16378 20471 20473 28
16379 20471 20474 28
16380 20471 20475 28
16381 20476 20477 28
16382 20476 20478 28
16383 20476 20479 28
16384 20476 20480 28
16385 20481 20482 28
16386 20481 20483 28
16387 20481 20484 28
16388 20481 20485 28
16389 20486 20487 28
16390 20486 20488 28
16391 20486 20489 28
16392 20486 20490 28
16393 20491 20492 28
16394 20491 20493 28
16395 20491 20494 28
16396 20491 20495 28
16397 20496 20497 28
16398 20496 20498 28
16399 20496 20499 28
16400 20496 20500 28
16401 20501 20502 28
16402 20501 20503 28
16403 20501 20504 28
16404 20501 20505 28
16405 20506 20507 28
16406 20506 20508 28
16407 20506 20509 28
16408 20506 20510 28
16409 20511 20512 28
16410 20511 20513 28
16411 20511 20514 28
16412 20511 20515 28
16413 20516 20517 28
16414 20516 20518 28
16415 20516 20519 28
16416 20516 20520 28
16417 20521 20522 28
16418 20521 20523 28
16419 20521 20524 28
16420 20521 20525 28
16421 20526 20527 28
16422 20526 20528 28
16423 20526 20529 28
16424 20526 20530 28
16425 20531 20532 28
16426 20531 20533 28
16427 20531 20534 28
16428 20531 20535 28
16429 20536 20537 28
16430 20536 20538 28
16431 20536 20539 28
16432 20536 20540 28
16433 20541 20542 28
16434 20541 20543 28
16435 20541 20544 28
16436 20541 20545 28
16437 20546 20547 28
16438 20546 20548 28
16439 20546 20549 28
16440 20546 20550 28
16441 20551 20552 28
16442 20551 20553 28
16443 20551 20554 28
16444 20551 20555 28
16445 20556 20557 28
16446 20556 20558 28
16447 20556 20559 28
16448 20556 20560 28
16449 20561 20562 28
16450 20561 20563 28
16451 20561 20564 28
16452 20561 20565 28
16453 20566 20567 28
16454 20566 20568 28
16455 20566 20569 28
16456 20566 20570 28
16457 20571 20572 28
16458 20571 20573 28
16459 20571 20574 28
16460 20571 20575 28
16461 20576 20577 28
16462 20576 20578 28
16463 20576 20579 28
16464 20576 20580 28
16465 20581 20582 28
16466 20581 20583 28
16467 20581 20584 28
16468 20581 20585 28
16469 20586 20587 28
16470 20586 20588 28
16471 20586 20589 28
16472 20586 20590 28
16473 20591 20592 28
16474 20591 20593 28
16475 20591 20594 28
16476 20591 20595 28
16477 20596 20597 28
16478 20596 20598 28
16479 20596 20599 28
16480 20596 20600 28
16481 20601 20602 28
16482 20601 20603 28
16483 20601 20604 28
16484 20601 20605 28
16485 20606 20607 28
16486 20606 20608 28
16487 20606 20609 28
16488 20606 20610 28
16489 20611 20612 28
16490 20611 20613 28
16491 20611 20614 28
16492 20611 20615 28
16493 20616 20617 28
16494 20616 20618 28
16495 20616 20619 28
16496 20616 20620 28
16497 20621 20622 28
16498 20621 20623 28
16499 20621 20624 28
16500 20621 20625 28
16501 20626 20627 28
16502 20626 20628 28
16503 20626 20629 28
16504 20626 20630 28
16505 20631 20632 28
16506 20631 20633 28
16507 20631 20634 28
16508 20631 20635 28
16509 20636 20637 28
16510 20636 20638 28
16511 20636 20639 28
16512 20636 20640 28
16513 20641 20642 28
16514 20641 20643 28
16515 20641 20644 28
16516 20641 20645 28
16517 20646 20647 28
16518 20646 20648 28
16519 20646 20649 28
16520 20646 20650 28
16521 20651 20652 28
16522 20651 20653 28
16523 20651 20654 28
16524 20651 20655 28
16525 20656 20657 28
16526 20656 20658 28
16527 20656 20659 28
16528 20656 20660 28
16529 20661 20662 28
16530 20661 20663 28
16531 20661 20664 28
16532 20661 20665 28
16533 20666 20667 28
16534 20666 20668 28
16535 20666 20669 28
16536 20666 20670 28
16537 20671 20672 28
16538 20671 20673 28
16539 20671 20674 28
16540 20671 20675 28
16541 20676 20677 28
16542 20676 20678 28
16543 20676 20679 28
16544 20676 20680 28
16545 20681 20682 28
16546 20681 20683 28
16547 20681 20684 28
16548 20681 20685 28
16549 20686 20687 28
16550 20686 20688 28
16551 20686 20689 28
16552 20686 20690 28
16553 20691 20692 28
16554 20691 20693 28
16555 20691 20694 28
16556 20691 20695 28
16557 20696 20697 28
16558 20696 20698 28
16559 20696 20699 28
16560 20696 20700 28
16561 20701 20702 28
16562 20701 20703 28
16563 20701 20704 28
16564 20701 20705 28
16565 20706 20707 28
16566 20706 20708 28
16567 20706 20709 28
16568 20706 20710 28
16569 20711 20712 28
16570 20711 20713 28
16571 20711 20714 28
16572 20711 20715 28
16573 20716 20717 28
16574 20716 20718 28
16575 20716 20719 28
16576 20716 20720 28
16577 20721 20722 28
16578 20721 20723 28
16579 20721 20724 28
16580 20721 20725 28
16581 20726 20727 28
16582 20726 20728 28
16583 20726 20729 28
16584 20726 20730 28
16585 20731 20732 28
16586 20731 20733 28
16587 20731 20734 28
16588 20731 20735 28
16589 20736 20737 28
16590 20736 20738 28
16591 20736 20739 28
16592 20736 20740 28
16593 20741 20742 28
16594 20741 20743 28
16595 20741 20744 28
16596 20741 20745 28
16597 20746 20747 28
16598 20746 20748 28
16599 20746 20749 28
16600 20746 20750 28
16601 20751 20752 28
16602 20751 20753 28
16603 20751 20754 28
16604 20751 20755 28
16605 20756 20757 28
16606 20756 20758 28
16607 20756 20759 28
16608 20756 20760 28
16609 20761 20762 28
16610 20761 20763 28
16611 20761 20764 28
16612 20761 20765 28
16613 20766 20767 28
16614 20766 20768 28
16615 20766 20769 28
16616 20766 20770 28
16617 20771 20772 28
16618 20771 20773 28
16619 20771 20774 28
16620 20771 20775 28
16621 20776 20777 28
16622 20776 20778 28
16623 20776 20779 28
16624 20776 20780 28
16625 20781 20782 28
16626 20781 20783 28
16627 20781 20784 28
16628 20781 20785 28
16629 20786 20787 28
16630 20786 20788 28
16631 20786 20789 28
16632 20786 20790 28
16633 20791 20792 28
16634 20791 20793 28
16635 20791 20794 28
16636 20791 20795 28
16637 20796 20797 28
16638 20796 20798 28
16639 20796 20799 28
16640 20796 20800 28
16641 20801 20802 28
16642 20801 20803 28
16643 20801 20804 28
16644 20801 20805 28
16645 20806 20807 28
16646 20806 20808 28
16647 20806 20809 28
16648 20806 20810 28
16649 20811 20812 28
16650 20811 20813 28
16651 20811 20814 28
16652 20811 20815 28
16653 20816 20817 28
16654 20816 20818 28
16655 20816 20819 28
16656 20816 20820 28
16657 20821 20822 28
16658 20821 20823 28
16659 20821 20824 28
16660 20821 20825 28
16661 20826 20827 28
16662 20826 20828 28
16663 20826 20829 28
16664 20826 20830 28
16665 20831 20832 28
16666 20831 20833 28
16667 20831 20834 28
16668 20831 20835 28
16669 20836 20837 28
16670 20836 20838 28
16671 20836 20839 28
16672 20836 20840 28
16673 20841 20842 28
16674 20841 20843 28
16675 20841 20844 28
16676 20841 20845 28
16677 20846 20847 28
16678 20846 20848 28
16679 20846 20849 28
16680 20846 20850 28
16681 20851 20852 28
16682 20851 20853 28
16683 20851 20854 28
16684 20851 20855 28
16685 20856 20857 28
16686 20856 20858 28
16687 20856 20859 28
16688 20856 20860 28
16689 20861 20862 28
16690 20861 20863 28
16691 20861 20864 28
16692 20861 20865 28
16693 20866 20867 28
16694 20866 20868 28
16695 20866 20869 28
16696 20866 20870 28
16697 20871 20872 28
16698 20871 20873 28
16699 20871 20874 28
16700 20871 20875 28
16701 20876 20877 28
16702 20876 20878 28
16703 20876 20879 28
16704 20876 20880 28
16705 20881 20882 28
16706 20881 20883 28
16707 20881 20884 28
16708 20881 20885 28
16709 20886 20887 28
16710 20886 20888 28
16711 20886 20889 28
16712 20886 20890 28
16713 20891 20892 28
16714 20891 20893 28
16715 20891 20894 28
16716 20891 20895 28
16717 20896 20897 28
16718 20896 20898 28
16719 20896 20899 28
16720 20896 20900 28
16721 20901 20902 28
16722 20901 20903 28
16723 20901 20904 28
16724 20901 20905 28
16725 20906 20907 28
16726 20906 20908 28
16727 20906 20909 28
16728 20906 20910 28
16729 20911 20912 28
16730 20911 20913 28
16731 20911 20914 28
16732 20911 20915 28
16733 20916 20917 28
16734 20916 20918 28
16735 20916 20919 28
16736 20916 20920 28
16737 20921 20922 28
16738 20921 20923 28
16739 20921 20924 28
16740 20921 20925 28
16741 20926 20927 28
16742 20926 20928 28
16743 20926 20929 28
16744 20926 20930 28
16745 20931 20932 28
16746 20931 20933 28
16747 20931 20934 28
16748 20931 20935 28
16749 20936 20937 28
16750 20936 20938 28
16751 20936 20939 28
16752 20936 20940 28
16753 20941 20942 28
16754 20941 20943 28
16755 20941 20944 28
16756 20941 20945 28
16757 20946 20947 28
16758 20946 20948 28
16759 20946 20949 28
16760 20946 20950 28
16761 20951 20952 28
16762 20951 20953 28
16763 20951 20954 28
16764 20951 20955 28
16765 20956 20957 28
16766 20956 20958 28
16767 20956 20959 28
16768 20956 20960 28
16769 20961 20962 28
16770 20961 20963 28
16771 20961 20964 28
16772 20961 20965 28
16773 20966 20967 28
16774 20966 20968 28
16775 20966 20969 28
16776 20966 20970 28
16777 20971 20972 28
16778 20971 20973 28
16779 20971 20974 28
16780 20971 20975 28
16781 20976 20977 28
16782 20976 20978 28
16783 20976 20979 28
16784 20976 20980 28
16785 20981 20982 28
16786 20981 20983 28
16787 20981 20984 28
16788 20981 20985 28
16789 20986 20987 28
16790 20986 20988 28
16791 20986 20989 28
16792 20986 20990 28
16793 20991 20992 28
16794 20991 20993 28
16795 20991 20994 28
16796 20991 20995 28
16797 20996 20997 28
16798 20996 20998 28
16799 20996 20999 28
16800 20996 21000 28
16801 21001 21002 28
16802 21001 21003 28
16803 21001 21004 28
16804 21001 21005 28
16805 21006 21007 28
16806 21006 21008 28
16807 21006 21009 28
16808 21006 21010 28
16809 21011 21012 28
16810 21011 21013 28
16811 21011 21014 28
16812 21011 21015 28
16813 21016 21017 28
16814 21016 21018 28
16815 21016 21019 28
16816 21016 21020 28
16817 21021 21022 28
16818 21021 21023 28
16819 21021 21024 28
16820 21021 21025 28
16821 21026 21027 28
16822 21026 21028 28
16823 21026 21029 28
16824 21026 21030 28
16825 21031 21032 28
16826 21031 21033 28
16827 21031 21034 28
16828 21031 21035 28
16829 21036 21037 28
16830 21036 21038 28
16831 21036 21039 28
16832 21036 21040 28
16833 21041 21042 28
16834 21041 21043 28
16835 21041 21044 28
16836 21041 21045 28
16837 21046 21047 28
16838 21046 21048 28
16839 21046 21049 28
16840 21046 21050 28
16841 21051 21052 28
16842 21051 21053 28
16843 21051 21054 28
16844 21051 21055 28
16845 21056 21057 28
16846 21056 21058 28
16847 21056 21059 28
16848 21056 21060 28
16849 21061 21062 28
16850 21061 21063 28
16851 21061 21064 28
16852 21061 21065 28
16853 21066 21067 28
16854 21066 21068 28
16855 21066 21069 28
16856 21066 21070 28
16857 21071 21072 28
16858 21071 21073 28
16859 21071 21074 28
16860 21071 21075 28
16861 21076 21077 28
16862 21076 21078 28
16863 21076 21079 28
16864 21076 21080 28
16865 21081 21082 28
16866 21081 21083 28
16867 21081 21084 28
16868 21081 21085 28
16869 21086 21087 28
16870 21086 21088 28
16871 21086 21089 28
16872 21086 21090 28
16873 21091 21092 28
16874 21091 21093 28
16875 21091 21094 28
16876 21091 21095 28
16877 21096 21097 28
16878 21096 21098 28
16879 21096 21099 28
16880 21096 21100 28
16881 21101 21102 28
16882 21101 21103 28
16883 21101 21104 28
16884 21101 21105 28
16885 21106 21107 28
16886 21106 21108 28
16887 21106 21109 28
16888 21106 21110 28
16889 21111 21112 28
16890 21111 21113 28
16891 21111 21114 28
16892 21111 21115 28
16893 21116 21117 28
16894 21116 21118 28
16895 21116 21119 28
16896 21116 21120 28
16897 21121 21122 28
16898 21121 21123 28
16899 21121 21124 28
16900 21121 21125 28
16901 21126 21127 28
16902 21126 21128 28
16903 21126 21129 28
16904 21126 21130 28
16905 21131 21132 28
16906 21131 21133 28
16907 21131 21134 28
16908 21131 21135 28
16909 21136 21137 28
16910 21136 21138 28
16911 21136 21139 28
16912 21136 21140 28
16913 21141 21142 28
16914 21141 21143 28
16915 21141 21144 28
16916 21141 21145 28
16917 21146 21147 28
16918 21146 21148 28
16919 21146 21149 28
16920 21146 21150 28
16921 21151 21152 28
16922 21151 21153 28
16923 21151 21154 28
16924 21151 21155 28
16925 21156 21157 28
16926 21156 21158 28
16927 21156 21159 28
16928 21156 21160 28
16929 21161 21162 28
16930 21161 21163 28
16931 21161 21164 28
16932 21161 21165 28
16933 21166 21167 28
16934 21166 21168 28
16935 21166 21169 28
16936 21166 21170 28
16937 21171 21172 28
16938 21171 21173 28
16939 21171 21174 28
16940 21171 21175 28
16941 21176 21177 28
16942 21176 21178 28
16943 21176 21179 28
16944 21176 21180 28
16945 21181 21182 28
16946 21181 21183 28
16947 21181 21184 28
16948 21181 21185 28
16949 21186 21187 28
16950 21186 21188 28
16951 21186 21189 28
16952 21186 21190 28
16953 21191 21192 28
16954 21191 21193 28
16955 21191 21194 28
16956 21191 21195 28
16957 21196 21197 28
16958 21196 21198 28
16959 21196 21199 28
16960 21196 21200 28
16961 21201 21202 28
16962 21201 21203 28
16963 21201 21204 28
16964 21201 21205 28
16965 21206 21207 28
16966 21206 21208 28
16967 21206 21209 28
16968 21206 21210 28
16969 21211 21212 28
16970 21211 21213 28
16971 21211 21214 28
16972 21211 21215 28
16973 21216 21217 28
16974 21216 21218 28
16975 21216 21219 28
16976 21216 21220 28
16977 21221 21222 28
16978 21221 21223 28
16979 21221 21224 28
16980 21221 21225 28
16981 21226 21227 28
16982 21226 21228 28
16983 21226 21229 28
16984 21226 21230 28
16985 21231 21232 28
16986 21231 21233 28
16987 21231 21234 28
16988 21231 21235 28
16989 21236 21237 28
16990 21236 21238 28
16991 21236 21239 28
16992 21236 21240 28
16993 21241 21242 28
16994 21241 21243 28
16995 21241 21244 28
16996 21241 21245 28
16997 21246 21247 28
16998 21246 21248 28
16999 21246 21249 28
17000 21246 21250 28
17001 21251 21252 28
17002 21251 21253 28
17003 21251 21254 28
17004 21251 21255 28
17005 21256 21257 28
17006 21256 21258 28
17007 21256 21259 28
17008 21256 21260 28
17009 21261 21262 28
17010 21261 21263 28
17011 21261 21264 28
17012 21261 21265 28
17013 21266 21267 28
17014 21266 21268 28
17015 21266 21269 28
17016 21266 21270 28
17017 21271 21272 28
17018 21271 21273 28
17019 21271 21274 28
17020 21271 21275 28
17021 21276 21277 28
17022 21276 21278 28
17023 21276 21279 28
17024 21276 21280 28
17025 21281 21282 28
17026 21281 21283 28
17027 21281 21284 28
17028 21281 21285 28
17029 21286 21287 28
17030 21286 21288 28
17031 21286 21289 28
17032 21286 21290 28
17033 21291 21292 28
17034 21291 21293 28
17035 21291 21294 28
17036 21291 21295 28
17037 21296 21297 28
17038 21296 21298 28
17039 21296 21299 28
17040 21296 21300 28
17041 21301 21302 28
17042 21301 21303 28
17043 21301 21304 28
17044 21301 21305 28
17045 21306 21307 28
17046 21306 21308 28
17047 21306 21309 28
17048 21306 21310 28
17049 21311 21312 28
17050 21311 21313 28
17051 21311 21314 28
17052 21311 21315 28
17053 21316 21317 28
17054 21316 21318 28
17055 21316 21319 28
17056 21316 21320 28
17057 21321 21322 28
17058 21321 21323 28
17059 21321 21324 28
17060 21321 21325 28
17061 21326 21327 28
17062 21326 21328 28
17063 21326 21329 28
17064 21326 21330 28
17065 21331 21332 28
17066 21331 21333 28
17067 21331 21334 28
17068 21331 21335 28
17069 21336 21337 28
17070 21336 21338 28
17071 21336 21339 28
17072 21336 21340 28
17073 21341 21342 28
17074 21341 21343 28
17075 21341 21344 28
17076 21341 21345 28
17077 21346 21347 28
17078 21346 21348 28
17079 21346 21349 28
17080 21346 21350 28
17081 21351 21352 28
17082 21351 21353 28
17083 21351 21354 28
17084 21351 21355 28
17085 21356 21357 28
17086 21356 21358 28
17087 21356 21359 28
17088 21356 21360 28
17089 21361 21362 28
17090 21361 21363 28
17091 21361 21364 28
17092 21361 21365 28
17093 21366 21367 28
17094 21366 21368 28
17095 21366 21369 28
17096 21366 21370 28
17097 21371 21372 28
17098 21371 21373 28
17099 21371 21374 28
17100 21371 21375 28
17101 21376 21377 28
17102 21376 21378 28
17103 21376 21379 28
17104 21376 21380 28
17105 21381 21382 28
17106 21381 21383 28
17107 21381 21384 28
17108 21381 21385 28
17109 21386 21387 28
17110 21386 21388 28
17111 21386 21389 28
17112 21386 21390 28
17113 21391 21392 28
17114 21391 21393 28
17115 21391 21394 28
17116 21391 21395 28
17117 21396 21397 28
17118 21396 21398 28
17119 21396 21399 28
17120 21396 21400 28
17121 21401 21402 28
17122 21401 21403 28
17123 21401 21404 28
17124 21401 21405 28
17125 21406 21407 28
17126 21406 21408 28
17127 21406 21409 28
17128 21406 21410 28
17129 21411 21412 28
17130 21411 21413 28
17131 21411 21414 28
17132 21411 21415 28
17133 21416 21417 28
17134 21416 21418 28
17135 21416 21419 28
17136 21416 21420 28
17137 21421 21422 28
17138 21421 21423 28
17139 21421 21424 28
17140 21421 21425 28
17141 21426 21427 28
17142 21426 21428 28
17143 21426 21429 28
17144 21426 21430 28
17145 21431 21432 28
17146 21431 21433 28
17147 21431 21434 28
17148 21431 21435 28
17149 21436 21437 28
17150 21436 21438 28
17151 21436 21439 28
17152 21436 21440 28
17153 21441 21442 28
17154 21441 21443 28
17155 21441 21444 28
17156 21441 21445 28
17157 21446 21447 28
17158 21446 21448 28
17159 21446 21449 28
17160 21446 21450 28
17161 21451 21452 28
17162 21451 21453 28
17163 21451 21454 28
17164 21451 21455 28
17165 21456 21457 28
17166 21456 21458 28
17167 21456 21459 28
17168 21456 21460 28
17169 21461 21462 28
17170 21461 21463 28
17171 21461 21464 28
17172 21461 21465 28
17173 21466 21467 28
17174 21466 21468 28
17175 21466 21469 28
17176 21466 21470 28
17177 21471 21472 28
17178 21471 21473 28
17179 21471 21474 28
17180 21471 21475 28
17181 21476 21477 28
17182 21476 21478 28
17183 21476 21479 28
17184 21476 21480 28
17185 21481 21482 28
17186 21481 21483 28
17187 21481 21484 28
17188 21481 21485 28
17189 21486 21487 28
17190 21486 21488 28
17191 21486 21489 28
17192 21486 21490 28
17193 21491 21492 28
17194 21491 21493 28
17195 21491 21494 28
17196 21491 21495 28
17197 21496 21497 28
17198 21496 21498 28
17199 21496 21499 28
17200 21496 21500 28
17201 21501 21502 28
17202 21501 21503 28
17203 21501 21504 28
17204 21501 21505 28
17205 21506 21507 28
17206 21506 21508 28
17207 21506 21509 28
17208 21506 21510 28
17209 21511 21512 28
17210 21511 21513 28
17211 21511 21514 28
17212 21511 21515 28
17213 21516 21517 28
17214 21516 21518 28
17215 21516 21519 28
17216 21516 21520 28
17217 21521 21522 28
17218 21521 21523 28
17219 21521 21524 28
17220 21521 21525 28
17221 21526 21527 28
17222 21526 21528 28
17223 21526 21529 28
17224 21526 21530 28
17225 21531 21532 28
17226 21531 21533 28
17227 21531 21534 28
17228 21531 21535 28
17229 21536 21537 28
17230 21536 21538 28
17231 21536 21539 28
17232 21536 21540 28
17233 21541 21542 28
17234 21541 21543 28
17235 21541 21544 28
17236 21541 21545 28
17237 21546 21547 28
17238 21546 21548 28
17239 21546 21549 28
17240 21546 21550 28
17241 21551 21552 28
17242 21551 21553 28
17243 21551 21554 28
17244 21551 21555 28
17245 21556 21557 28
17246 21556 21558 28
17247 21556 21559 28
17248 21556 21560 28
17249 21561 21562 28
17250 21561 21563 28
17251 21561 21564 28
17252 21561 21565 28
17253 21566 21567 28
17254 21566 21568 28
17255 21566 21569 28
17256 21566 21570 28
17257 21571 21572 28
17258 21571 21573 28
17259 21571 21574 28
17260 21571 21575 28
17261 21576 21577 28
17262 21576 21578 28
17263 21576 21579 28
17264 21576 21580 28
17265 21581 21582 28
17266 21581 21583 28
17267 21581 21584 28
17268 21581 21585 28
17269 21586 21587 28
17270 21586 21588 28
17271 21586 21589 28
17272 21586 21590 28
17273 21591 21592 28
17274 21591 21593 28
17275 21591 21594 28
17276 21591 21595 28
17277 21596 21597 28
17278 21596 21598 28
17279 21596 21599 28
17280 21596 21600 28
17281 21601 21602 28
17282 21601 21603 28
17283 21601 21604 28
17284 21601 21605 28
17285 21606 21607 28
17286 21606 21608 28
17287 21606 21609 28
17288 21606 21610 28
17289 21611 21612 28
17290 21611 21613 28
17291 21611 21614 28
17292 21611 21615 28
17293 21616 21617 28
17294 21616 21618 28
17295 21616 21619 28
17296 21616 21620 28
17297 21621 21622 28
17298 21621 21623 28
17299 21621 21624 28
17300 21621 21625 28
17301 21626 21627 28
17302 21626 21628 28
17303 21626 21629 28
17304 21626 21630 28
17305 21631 21632 28
17306 21631 21633 28
17307 21631 21634 28
17308 21631 21635 28
17309 21636 21637 28
17310 21636 21638 28
17311 21636 21639 28
17312 21636 21640 28
17313 21641 21642 28
17314 21641 21643 28
17315 21641 21644 28
17316 21641 21645 28
17317 21646 21647 28
17318 21646 21648 28
17319 21646 21649 28
17320 21646 21650 28
17321 21651 21652 28
17322 21651 21653 28
17323 21651 21654 28
17324 21651 21655 28
17325 21656 21657 28
17326 21656 21658 28
17327 21656 21659 28
17328 21656 21660 28
17329 21661 21662 28
17330 21661 21663 28
17331 21661 21664 28
17332 21661 21665 28
17333 21666 21667 28
17334 21666 21668 28
17335 21666 21669 28
17336 21666 21670 28
17337 21671 21672 28
17338 21671 21673 28
17339 21671 21674 28
17340 21671 21675 28
17341 21676 21677 28
17342 21676 21678 28
17343 21676 21679 28
17344 21676 21680 28
17345 21681 21682 28
17346 21681 21683 28
17347 21681 21684 28
17348 21681 21685 28
17349 21686 21687 28
17350 21686 21688 28
17351 21686 21689 28
17352 21686 21690 28
17353 21691 21692 28
17354 21691 21693 28
17355 21691 21694 28
17356 21691 21695 28
17357 21696 21697 28
17358 21696 21698 28
17359 21696 21699 28
17360 21696 21700 28
17361 21701 21702 28
17362 21701 21703 28
17363 21701 21704 28
17364 21701 21705 28
17365 21706 21707 28
17366 21706 21708 28
17367 21706 21709 28
17368 21706 21710 28
17369 21711 21712 28
17370 21711 21713 28
17371 21711 21714 28
17372 21711 21715 28
17373 21716 21717 28
17374 21716 21718 28
17375 21716 21719 28
17376 21716 21720 28
17377 21721 21722 28
17378 21721 21723 28
17379 21721 21724 28
17380 21721 21725 28
17381 21726 21727 28
17382 21726 21728 28
17383 21726 21729 28
17384 21726 21730 28
17385 21731 21732 28
17386 21731 21733 28
17387 21731 21734 28
17388 21731 21735 28
17389 21736 21737 28
17390 21736 21738 28
17391 21736 21739 28
17392 21736 21740 28
17393 21741 21742 28
17394 21741 21743 28
17395 21741 21744 28
17396 21741 21745 28
17397 21746 21747 28
17398 21746 21748 28
17399 21746 21749 28
17400 21746 21750 28
17401 21751 21752 28
17402 21751 21753 28
17403 21751 21754 28
17404 21751 21755 28
17405 21756 21757 28
17406 21756 21758 28
17407 21756 21759 28
17408 21756 21760 28
17409 21761 21762 28
17410 21761 21763 28
17411 21761 21764 28
17412 21761 21765 28
17413 21766 21767 28
17414 21766 21768 28
17415 21766 21769 28
17416 21766 21770 28
17417 21771 21772 28
17418 21771 21773 28
17419 21771 21774 28
17420 21771 21775 28
17421 21776 21777 28
17422 21776 21778 28
17423 21776 21779 28
17424 21776 21780 28
17425 21781 21782 28
17426 21781 21783 28
17427 21781 21784 28
17428 21781 21785 28
17429 21786 21787 28
17430 21786 21788 28
17431 21786 21789 28
17432 21786 21790 28
17433 21791 21792 28
17434 21791 21793 28
17435 21791 21794 28
17436 21791 21795 28
17437 21796 21797 28
17438 21796 21798 28
17439 21796 21799 28
17440 21796 21800 28
17441 21801 21802 28
17442 21801 21803 28
17443 21801 21804 28
17444 21801 21805 28
17445 21806 21807 28
17446 21806 21808 28
17447 21806 21809 28
17448 21806 21810 28
17449 21811 21812 28
17450 21811 21813 28
17451 21811 21814 28
17452 21811 21815 28
17453 21816 21817 28
17454 21816 21818 28
17455 21816 21819 28
17456 21816 21820 28
17457 21821 21822 28
17458 21821 21823 28
17459 21821 21824 28
17460 21821 21825 28
17461 21826 21827 28
17462 21826 21828 28
17463 21826 21829 28
17464 21826 21830 28
17465 21831 21832 28
17466 21831 21833 28
17467 21831 21834 28
17468 21831 21835 28
17469 21836 21837 28
17470 21836 21838 28
17471 21836 21839 28
17472 21836 21840 28
17473 21841 21842 28
17474 21841 21843 28
17475 21841 21844 28
17476 21841 21845 28
17477 21846 21847 28
17478 21846 21848 28
17479 21846 21849 28
17480 21846 21850 28
17481 21851 21852 28
17482 21851 21853 28
17483 21851 21854 28
17484 21851 21855 28
17485 21856 21857 28
17486 21856 21858 28
17487 21856 21859 28
17488 21856 21860 28
17489 21861 21862 28
17490 21861 21863 28
17491 21861 21864 28
17492 21861 21865 28
17493 21866 21867 28
17494 21866 21868 28
17495 21866 21869 28
17496 21866 21870 28
17497 21871 21872 28
17498 21871 21873 28
17499 21871 21874 28
17500 21871 21875 28
17501 21876 21877 28
17502 21876 21878 28
17503 21876 21879 28
17504 21876 21880 28
17505 21881 21882 28
17506 21881 21883 28
17507 21881 21884 28
17508 21881 21885 28
17509 21886 21887 28
17510 21886 21888 28
17511 21886 21889 28
17512 21886 21890 28
17513 21891 21892 28
17514 21891 21893 28
17515 21891 21894 28
17516 21891 21895 28
17517 21896 21897 28
17518 21896 21898 28
17519 21896 21899 28
17520 21896 21900 28
17521 21901 21902 28
17522 21901 21903 28
17523 21901 21904 28
17524 21901 21905 28
17525 21906 21907 28
17526 21906 21908 28
17527 21906 21909 28
17528 21906 21910 28
17529 21911 21912 28
17530 21911 21913 28
17531 21911 21914 28
17532 21911 21915 28
17533 21916 21917 28
17534 21916 21918 28
17535 21916 21919 28
17536 21916 21920 28
17537 21921 21922 28
17538 21921 21923 28
17539 21921 21924 28
17540 21921 21925 28
17541 21926 21927 28
17542 21926 21928 28
17543 21926 21929 28
17544 21926 21930 28
17545 21931 21932 28
17546 21931 21933 28
17547 21931 21934 28
17548 21931 21935 28
17549 21936 21937 28
17550 21936 21938 28
17551 21936 21939 28
17552 21936 21940 28
17553 21941 21942 28
17554 21941 21943 28
17555 21941 21944 28
17556 21941 21945 28
17557 21946 21947 28
17558 21946 21948 28
17559 21946 21949 28
17560 21946 21950 28
17561 21951 21952 28
17562 21951 21953 28
17563 21951 21954 28
17564 21951 21955 28
17565 21956 21957 28
17566 21956 21958 28
17567 21956 21959 28
17568 21956 21960 28
17569 21961 21962 28
17570 21961 21963 28
17571 21961 21964 28
17572 21961 21965 28
17573 21966 21967 28
17574 21966 21968 28
17575 21966 21969 28
17576 21966 21970 28
17577 21971 21972 28
17578 21971 21973 28
17579 21971 21974 28
17580 21971 21975 28
17581 21976 21977 28
17582 21976 21978 28
17583 21976 21979 28
17584 21976 21980 28
17585 21981 21982 28
17586 21981 21983 28
17587 21981 21984 28
17588 21981 21985 28
17589 21986 21987 28
17590 21986 21988 28
17591 21986 21989 28
17592 21986 21990 28
17593 21991 21992 28
17594 21991 21993 28
17595 21991 21994 28
17596 21991 21995 28
17597 21996 21997 28
17598 21996 21998 28
17599 21996 21999 28
17600 21996 22000 28
17601 22001 22002 28
17602 22001 22003 28
17603 22001 22004 28
17604 22001 22005 28
17605 22006 22007 28
17606 22006 22008 28
17607 22006 22009 28
17608 22006 22010 28
17609 22011 22012 28
17610 22011 22013 28
17611 22011 22014 28
17612 22011 22015 28
17613 22016 22017 28
17614 22016 22018 28
17615 22016 22019 28
17616 22016 22020 28
17617 22021 22022 28
17618 22021 22023 28
17619 22021 22024 28
17620 22021 22025 28
17621 22026 22027 28
17622 22026 22028 28
17623 22026 22029 28
17624 22026 22030 28
17625 22031 22032 28
17626 22031 22033 28
17627 22031 22034 28
17628 22031 22035 28
17629 22036 22037 28
17630 22036 22038 28
17631 22036 22039 28
17632 22036 22040 28
17633 22041 22042 28
17634 22041 22043 28
17635 22041 22044 28
17636 22041 22045 28
17637 22046 22047 28
17638 22046 22048 28
17639 22046 22049 28
17640 22046 22050 28
17641 22051 22052 28
17642 22051 22053 28
17643 22051 22054 28
17644 22051 22055 28
17645 22056 22057 28
17646 22056 22058 28
17647 22056 22059 28
17648 22056 22060 28
17649 22061 22062 28
17650 22061 22063 28
17651 22061 22064 28
17652 22061 22065 28
17653 22066 22067 28
17654 22066 22068 28
17655 22066 22069 28
17656 22066 22070 28
17657 22071 22072 28
17658 22071 22073 28
17659 22071 22074 28
17660 22071 22075 28
17661 22076 22077 28
17662 22076 22078 28
17663 22076 22079 28
17664 22076 22080 28
17665 22081 22082 28
17666 22081 22083 28
17667 22081 22084 28
17668 22081 22085 28
17669 22086 22087 28
17670 22086 22088 28
17671 22086 22089 28
17672 22086 22090 28
17673 22091 22092 28
17674 22091 22093 28
17675 22091 22094 28
17676 22091 22095 28
17677 22096 22097 28
17678 22096 22098 28
17679 22096 22099 28
17680 22096 22100 28
17681 22101 22102 28
17682 22101 22103 28
17683 22101 22104 28
17684 22101 22105 28
17685 22106 22107 28
17686 22106 22108 28
17687 22106 22109 28
17688 22106 22110 28
17689 22111 22112 28
17690 22111 22113 28
17691 22111 22114 28
17692 22111 22115 28
17693 22116 22117 28
17694 22116 22118 28
17695 22116 22119 28
17696 22116 22120 28
17697 22121 22122 28
17698 22121 22123 28
17699 22121 22124 28
17700 22121 22125 28
17701 22126 22127 28
17702 22126 22128 28
17703 22126 22129 28
17704 22126 22130 28
17705 22131 22132 28
17706 22131 22133 28
17707 22131 22134 28
17708 22131 22135 28
17709 22136 22137 28
17710 22136 22138 28
17711 22136 22139 28
17712 22136 22140 28
17713 22141 22142 28
17714 22141 22143 28
17715 22141 22144 28
17716 22141 22145 28
17717 22146 22147 28
17718 22146 22148 28
17719 22146 22149 28
17720 22146 22150 28
17721 22151 22152 28
17722 22151 22153 28
17723 22151 22154 28
17724 22151 22155 28
17725 22156 22157 28
17726 22156 22158 28
17727 22156 22159 28
17728 22156 22160 28
17729 22161 22162 28
17730 22161 22163 28
17731 22161 22164 28
17732 22161 22165 28
17733 22166 22167 28
17734 22166 22168 28
17735 22166 22169 28
17736 22166 22170 28
17737 22171 22172 28
17738 22171 22173 28
17739 22171 22174 28
17740 22171 22175 28
17741 22176 22177 28
17742 22176 22178 28
17743 22176 22179 28
17744 22176 22180 28
17745 22181 22182 28
17746 22181 22183 28
17747 22181 22184 28
17748 22181 22185 28
17749 22186 22187 28
17750 22186 22188 28
17751 22186 22189 28
17752 22186 22190 28
17753 22191 22192 28
17754 22191 22193 28
17755 22191 22194 28
17756 22191 22195 28
17757 22196 22197 28
17758 22196 22198 28
17759 22196 22199 28
17760 22196 22200 28
17761 22201 22202 28
17762 22201 22203 28
17763 22201 22204 28
17764 22201 22205 28
17765 22206 22207 28
17766 22206 22208 28
17767 22206 22209 28
17768 22206 22210 28
17769 22211 22212 28
17770 22211 22213 28
17771 22211 22214 28
17772 22211 22215 28
17773 22216 22217 28
17774 22216 22218 28
17775 22216 22219 28
17776 22216 22220 28
17777 22221 22222 28
17778 22221 22223 28
17779 22221 22224 28
17780 22221 22225 28
17781 22226 22227 28
17782 22226 22228 28
17783 22226 22229 28
17784 22226 22230 28
17785 22231 22232 28
17786 22231 22233 28
17787 22231 22234 28
17788 22231 22235 28
17789 22236 22237 28
17790 22236 22238 28
17791 22236 22239 28
17792 22236 22240 28
17793 22241 22242 28
17794 22241 22243 28
17795 22241 22244 28
17796 22241 22245 28
17797 22246 22247 28
17798 22246 22248 28
17799 22246 22249 28
17800 22246 22250 28
17801 22251 22252 28
17802 22251 22253 28
17803 22251 22254 28
17804 22251 22255 28
17805 22256 22257 28
17806 22256 22258 28
17807 22256 22259 28
17808 22256 22260 28
17809 22261 22262 28
17810 22261 22263 28
17811 22261 22264 28
17812 22261 22265 28
17813 22266 22267 28
17814 22266 22268 28
17815 22266 22269 28
17816 22266 22270 28
17817 22271 22272 28
17818 22271 22273 28
17819 22271 22274 28
17820 22271 22275 28
17821 22276 22277 28
17822 22276 22278 28
17823 22276 22279 28
17824 22276 22280 28
17825 22281 22282 28
17826 22281 22283 28
17827 22281 22284 28
17828 22281 22285 28
17829 22286 22287 28
17830 22286 22288 28
17831 22286 22289 28
17832 22286 22290 28
17833 22291 22292 28
17834 22291 22293 28
17835 22291 22294 28
17836 22291 22295 28
17837 22296 22297 28
17838 22296 22298 28
17839 22296 22299 28
17840 22296 22300 28
17841 22301 22302 28
17842 22301 22303 28
17843 22301 22304 28
17844 22301 22305 28
17845 22306 22307 28
17846 22306 22308 28
17847 22306 22309 28
17848 22306 22310 28
17849 22311 22312 28
17850 22311 22313 28
17851 22311 22314 28
17852 22311 22315 28
17853 22316 22317 28
17854 22316 22318 28
17855 22316 22319 28
17856 22316 22320 28
17857 22321 22322 28
17858 22321 22323 28
17859 22321 22324 28
17860 22321 22325 28
17861 22326 22327 28
17862 22326 22328 28
17863 22326 22329 28
17864 22326 22330 28
17865 22331 22332 28
17866 22331 22333 28
17867 22331 22334 28
17868 22331 22335 28
17869 22336 22337 28
17870 22336 22338 28
17871 22336 22339 28
17872 22336 22340 28
17873 22341 22342 28
17874 22341 22343 28
17875 22341 22344 28
17876 22341 22345 28
17877 22346 22347 28
17878 22346 22348 28
17879 22346 22349 28
17880 22346 22350 28
17881 22351 22352 28
17882 22351 22353 28
17883 22351 22354 28
17884 22351 22355 28
17885 22356 22357 28
17886 22356 22358 28
17887 22356 22359 28
17888 22356 22360 28
17889 22361 22362 28
17890 22361 22363 28
17891 22361 22364 28
17892 22361 22365 28
17893 22366 22367 28
17894 22366 22368 28
17895 22366 22369 28
17896 22366 22370 28
17897 22371 22372 28
17898 22371 22373 28
17899 22371 22374 28
17900 22371 22375 28
17901 22376 22377 28
17902 22376 22378 28
17903 22376 22379 28
17904 22376 22380 28
17905 22381 22382 28
17906 22381 22383 28
17907 22381 22384 28
17908 22381 22385 28
17909 22386 22387 28
17910 22386 22388 28
17911 22386 22389 28
17912 22386 22390 28
17913 22391 22392 28
17914 22391 22393 28
17915 22391 22394 28
17916 22391 22395 28
17917 22396 22397 28
17918 22396 22398 28
17919 22396 22399 28
17920 22396 22400 28
17921 22401 22402 28
17922 22401 22403 28
17923 22401 22404 28
17924 22401 22405 28
17925 22406 22407 28
17926 22406 22408 28
17927 22406 22409 28
17928 22406 22410 28
17929 22411 22412 28
17930 22411 22413 28
17931 22411 22414 28
17932 22411 22415 28
17933 22416 22417 28
17934 22416 22418 28
17935 22416 22419 28
17936 22416 22420 28
17937 22421 22422 28
17938 22421 22423 28
17939 22421 22424 28
17940 22421 22425 28
17941 22426 22427 28
17942 22426 22428 28
17943 22426 22429 28
17944 22426 22430 28
17945 22431 22432 28
17946 22431 22433 28
17947 22431 22434 28
17948 22431 22435 28
17949 22436 22437 28
17950 22436 22438 28
17951 22436 22439 28
17952 22436 22440 28
17953 22441 22442 28
17954 22441 22443 28
17955 22441 22444 28
17956 22441 22445 28
17957 22446 22447 28
17958 22446 22448 28
17959 22446 22449 28
17960 22446 22450 28
17961 22451 22452 28
17962 22451 22453 28
17963 22451 22454 28
17964 22451 22455 28
17965 22456 22457 28
17966 22456 22458 28
17967 22456 22459 28
17968 22456 22460 28
17969 22461 22462 28
17970 22461 22463 28
17971 22461 22464 28
17972 22461 22465 28
17973 22466 22467 28
17974 22466 22468 28
17975 22466 22469 28
17976 22466 22470 28
17977 22471 22472 28
17978 22471 22473 28
17979 22471 22474 28
17980 22471 22475 28
17981 22476 22477 28
17982 22476 22478 28
17983 22476 22479 28
17984 22476 22480 28
17985 22481 22482 28
17986 22481 22483 28
17987 22481 22484 28
17988 22481 22485 28
17989 22486 22487 28
17990 22486 22488 28
17991 22486 22489 28
17992 22486 22490 28
17993 22491 22492 28
17994 22491 22493 28
17995 22491 22494 28
17996 22491 22495 28
17997 22496 22497 28
17998 22496 22498 28
17999 22496 22499 28
18000 22496 22500 28
18001 22501 22502 28
18002 22501 22503 28
18003 22501 22504 28
18004 22501 22505 28
18005 22506 22507 28
18006 22506 22508 28
18007 22506 22509 28
18008 22506 22510 28
18009 22511 22512 28
18010 22511 22513 28
18011 22511 22514 28
18012 22511 22515 28
18013 22516 22517 28
18014 22516 22518 28
18015 22516 22519 28
18016 22516 22520 28
18017 22521 22522 28
18018 22521 22523 28
18019 22521 22524 28
18020 22521 22525 28
18021 22526 22527 28
18022 22526 22528 28
18023 22526 22529 28
18024 22526 22530 28
18025 22531 22532 28
18026 22531 22533 28
18027 22531 22534 28
18028 22531 22535 28
18029 22536 22537 28
18030 22536 22538 28
18031 22536 22539 28
18032 22536 22540 28
18033 22541 22542 28
18034 22541 22543 28
18035 22541 22544 28
18036 22541 22545 28
18037 22546 22547 28
18038 22546 22548 28
18039 22546 22549 28
18040 22546 22550 28
18041 22551 22552 28
18042 22551 22553 28
18043 22551 22554 28
18044 22551 22555 28
18045 22556 22557 28
18046 22556 22558 28
18047 22556 22559 28
18048 22556 22560 28
18049 22561 22562 28
18050 22561 22563 28
18051 22561 22564 28
18052 22561 22565 28
18053 22566 22567 28
18054 22566 22568 28
18055 22566 22569 28
18056 22566 22570 28
18057 22571 22572 28
18058 22571 22573 28
18059 22571 22574 28
18060 22571 22575 28
18061 22576 22577 28
18062 22576 22578 28
18063 22576 22579 28
18064 22576 22580 28
18065 22581 22582 28
18066 22581 22583 28
18067 22581 22584 28
18068 22581 22585 28
18069 22586 22587 28
18070 22586 22588 28
18071 22586 22589 28
18072 22586 22590 28
18073 22591 22592 28
18074 22591 22593 28
18075 22591 22594 28
18076 22591 22595 28
18077 22596 22597 28
18078 22596 22598 28
18079 22596 22599 28
18080 22596 22600 28
18081 22601 22602 28
18082 22601 22603 28
18083 22601 22604 28
18084 22601 22605 28
18085 22606 22607 28
18086 22606 22608 28
18087 22606 22609 28
18088 22606 22610 28
18089 22611 22612 28
18090 22611 22613 28
18091 22611 22614 28
18092 22611 22615 28
18093 22616 22617 28
18094 22616 22618 28
18095 22616 22619 28
18096 22616 22620 28
18097 22621 22622 28
18098 22621 22623 28
18099 22621 22624 28
18100 22621 22625 28
18101 22626 22627 28
18102 22626 22628 28
18103 22626 22629 28
18104 22626 22630 28
18105 22631 22632 28
18106 22631 22633 28
18107 22631 22634 28
18108 22631 22635 28
18109 22636 22637 28
18110 22636 22638 28
18111 22636 22639 28
18112 22636 22640 28
18113 22641 22642 28
18114 22641 22643 28
18115 22641 22644 28
18116 22641 22645 28
18117 22646 22647 28
18118 22646 22648 28
18119 22646 22649 28
18120 22646 22650 28
18121 22651 22652 28
18122 22651 22653 28
18123 22651 22654 28
18124 22651 22655 28
18125 22656 22657 28
18126 22656 22658 28
18127 22656 22659 28
18128 22656 22660 28
18129 22661 22662 28
18130 22661 22663 28
18131 22661 22664 28
18132 22661 22665 28
18133 22666 22667 28
18134 22666 22668 28
18135 22666 22669 28
18136 22666 22670 28
18137 22671 22672 28
18138 22671 22673 28
18139 22671 22674 28
18140 22671 22675 28
18141 22676 22677 28
18142 22676 22678 28
18143 22676 22679 28
18144 22676 22680 28
18145 22681 22682 28
18146 22681 22683 28
18147 22681 22684 28
18148 22681 22685 28
18149 22686 22687 28
18150 22686 22688 28
18151 22686 22689 28
18152 22686 22690 28
18153 22691 22692 28
18154 22691 22693 28
18155 22691 22694 28
18156 22691 22695 28
18157 22696 22697 28
18158 22696 22698 28
18159 22696 22699 28
18160 22696 22700 28
18161 22701 22702 28
18162 22701 22703 28
18163 22701 22704 28
18164 22701 22705 28
18165 22706 22707 28
18166 22706 22708 28
18167 22706 22709 28
18168 22706 22710 28
18169 22711 22712 28
18170 22711 22713 28
18171 22711 22714 28
18172 22711 22715 28
18173 22716 22717 28
18174 22716 22718 28
18175 22716 22719 28
18176 22716 22720 28
18177 22721 22722 28
18178 22721 22723 28
18179 22721 22724 28
18180 22721 22725 28
18181 22726 22727 28
18182 22726 22728 28
18183 22726 22729 28
18184 22726 22730 28
18185 22731 22732 28
18186 22731 22733 28
18187 22731 22734 28
18188 22731 22735 28
18189 22736 22737 28
18190 22736 22738 28
18191 22736 22739 28
18192 22736 22740 28
18193 22741 22742 28
18194 22741 22743 28
18195 22741 22744 28
18196 22741 22745 28
18197 22746 22747 28
18198 22746 22748 28
18199 22746 22749 28
18200 22746 22750 28
18201 22751 22752 28
18202 22751 22753 28
18203 22751 22754 28
18204 22751 22755 28
18205 22756 22757 28
18206 22756 22758 28
18207 22756 22759 28
18208 22756 22760 28
18209 22761 22762 28
18210 22761 22763 28
18211 22761 22764 28
18212 22761 22765 28
18213 22766 22767 28
18214 22766 22768 28
18215 22766 22769 28
18216 22766 22770 28
18217 22771 22772 28
18218 22771 22773 28
18219 22771 22774 28
18220 22771 22775 28
18221 22776 22777 28
18222 22776 22778 28
18223 22776 22779 28
18224 22776 22780 28
18225 22781 22782 28
18226 22781 22783 28
18227 22781 22784 28
18228 22781 22785 28
18229 22786 22787 28
18230 22786 22788 28
18231 22786 22789 28
18232 22786 22790 28
18233 22791 22792 28
18234 22791 22793 28
18235 22791 22794 28
18236 22791 22795 28
18237 22796 22797 28
18238 22796 22798 28
18239 22796 22799 28
18240 22796 22800 28
18241 22801 22802 28
18242 22801 22803 28
18243 22801 22804 28
18244 22801 22805 28
18245 22806 22807 28
18246 22806 22808 28
18247 22806 22809 28
18248 22806 22810 28
18249 22811 22812 28
18250 22811 22813 28
18251 22811 22814 28
18252 22811 22815 28
18253 22816 22817 28
18254 22816 22818 28
18255 22816 22819 28
18256 22816 22820 28
18257 22821 22822 28
18258 22821 22823 28
18259 22821 22824 28
18260 22821 22825 28
18261 22826 22827 28
18262 22826 22828 28
18263 22826 22829 28
18264 22826 22830 28
18265 22831 22832 28
18266 22831 22833 28
18267 22831 22834 28
18268 22831 22835 28
18269 22836 22837 28
18270 22836 22838 28
18271 22836 22839 28
18272 22836 22840 28
18273 22841 22842 28
18274 22841 22843 28
18275 22841 22844 28
18276 22841 22845 28
18277 22846 22847 28
18278 22846 22848 28
18279 22846 22849 28
18280 22846 22850 28
18281 22851 22852 28
18282 22851 22853 28
18283 22851 22854 28
18284 22851 22855 28
18285 22856 22857 28
18286 22856 22858 28
18287 22856 22859 28
18288 22856 22860 28
18289 22861 22862 28
18290 22861 22863 28
18291 22861 22864 28
18292 22861 22865 28
18293 22866 22867 28
18294 22866 22868 28
18295 22866 22869 28
18296 22866 22870 28
18297 22871 22872 28
18298 22871 22873 28
18299 22871 22874 28
18300 22871 22875 28
18301 22876 22877 28
18302 22876 22878 28
18303 22876 22879 28
18304 22876 22880 28
18305 22881 22882 28
18306 22881 22883 28
18307 22881 22884 28
18308 22881 22885 28
18309 22886 22887 28
18310 22886 22888 28
18311 22886 22889 28
18312 22886 22890 28
18313 22891 22892 28
18314 22891 22893 28
18315 22891 22894 28
18316 22891 22895 28
18317 22896 22897 28
18318 22896 22898 28
18319 22896 22899 28
18320 22896 22900 28
18321 22901 22902 28
18322 22901 22903 28
18323 22901 22904 28
18324 22901 22905 28
18325 22906 22907 28
18326 22906 22908 28
18327 22906 22909 28
18328 22906 22910 28
18329 22911 22912 28
18330 22911 22913 28
18331 22911 22914 28
18332 22911 22915 28
18333 22916 22917 28
18334 22916 22918 28
18335 22916 22919 28
18336 22916 22920 28
18337 22921 22922 28
18338 22921 22923 28
18339 22921 22924 28
18340 22921 22925 28
18341 22926 22927 28
18342 22926 22928 28
18343 22926 22929 28
18344 22926 22930 28
18345 22931 22932 28
18346 22931 22933 28
18347 22931 22934 28
18348 22931 22935 28
18349 22936 22937 28
18350 22936 22938 28
18351 22936 22939 28
18352 22936 22940 28
18353 22941 22942 28
18354 22941 22943 28
18355 22941 22944 28
18356 22941 22945 28
18357 22946 22947 28
18358 22946 22948 28
18359 22946 22949 28
18360 22946 22950 28
18361 22951 22952 28
18362 22951 22953 28
18363 22951 22954 28
18364 22951 22955 28
18365 22956 22957 28
18366 22956 22958 28
18367 22956 22959 28
18368 22956 22960 28
18369 22961 22962 28
18370 22961 22963 28
18371 22961 22964 28
18372 22961 22965 28
18373 22966 22967 28
18374 22966 22968 28
18375 22966 22969 28
18376 22966 22970 28
18377 22971 22972 28
18378 22971 22973 28
18379 22971 22974 28
18380 22971 22975 28
18381 22976 22977 28
18382 22976 22978 28
18383 22976 22979 28
18384 22976 22980 28
18385 22981 22982 28
18386 22981 22983 28
18387 22981 22984 28
18388 22981 22985 28
18389 22986 22987 28
18390 22986 22988 28
18391 22986 22989 28
18392 22986 22990 28
18393 22991 22992 28
18394 22991 22993 28
18395 22991 22994 28
18396 22991 22995 28
18397 22996 22997 28
18398 22996 22998 28
18399 22996 22999 28
18400 22996 23000 28
18401 23001 23002 28
18402 23001 23003 28
18403 23001 23004 28
18404 23001 23005 28
18405 23006 23007 28
18406 23006 23008 28
18407 23006 23009 28
18408 23006 23010 28
18409 23011 23012 28
18410 23011 23013 28
18411 23011 23014 28
18412 23011 23015 28
18413 23016 23017 28
18414 23016 23018 28
18415 23016 23019 28
18416 23016 23020 28
18417 23021 23022 28
18418 23021 23023 28
18419 23021 23024 28
18420 23021 23025 28
18421 23026 23027 28
18422 23026 23028 28
18423 23026 23029 28
18424 23026 23030 28
18425 23031 23032 28
18426 23031 23033 28
18427 23031 23034 28
18428 23031 23035 28
18429 23036 23037 28
18430 23036 23038 28
18431 23036 23039 28
18432 23036 23040 28
18433 23041 23042 28
18434 23041 23043 28
18435 23041 23044 28
18436 23041 23045 28
18437 23046 23047 28
18438 23046 23048 28
18439 23046 23049 28
18440 23046 23050 28
18441 23051 23052 28
18442 23051 23053 28
18443 23051 23054 28
18444 23051 23055 28
18445 23056 23057 28
18446 23056 23058 28
18447 23056 23059 28
18448 23056 23060 28
18449 23061 23062 28
18450 23061 23063 28
18451 23061 23064 28
18452 23061 23065 28
18453 23066 23067 28
18454 23066 23068 28
18455 23066 23069 28
18456 23066 23070 28
18457 23071 23072 28
18458 23071 23073 28
18459 23071 23074 28
18460 23071 23075 28
18461 23076 23077 28
18462 23076 23078 28
18463 23076 23079 28
18464 23076 23080 28
18465 23081 23082 28
18466 23081 23083 28
18467 23081 23084 28
18468 23081 23085 28
18469 23086 23087 28
18470 23086 23088 28
18471 23086 23089 28
18472 23086 23090 28
18473 23091 23092 28
18474 23091 23093 28
18475 23091 23094 28
18476 23091 23095 28
18477 23096 23097 28
18478 23096 23098 28
18479 23096 23099 28
18480 23096 23100 28
18481 23101 23102 28
18482 23101 23103 28
18483 23101 23104 28
18484 23101 23105 28
18485 23106 23107 28
18486 23106 23108 28
18487 23106 23109 28
18488 23106 23110 28
18489 23111 23112 28
18490 23111 23113 28
18491 23111 23114 28
18492 23111 23115 28
18493 23116 23117 28
18494 23116 23118 28
18495 23116 23119 28
18496 23116 23120 28
18497 23121 23122 28
18498 23121 23123 28
18499 23121 23124 28
18500 23121 23125 28
18501 23126 23127 28
18502 23126 23128 28
18503 23126 23129 28
18504 23126 23130 28
18505 23131 23132 28
18506 23131 23133 28
18507 23131 23134 28
18508 23131 23135 28
18509 23136 23137 28
18510 23136 23138 28
18511 23136 23139 28
18512 23136 23140 28
18513 23141 23142 28
18514 23141 23143 28
18515 23141 23144 28
18516 23141 23145 28
18517 23146 23147 28
18518 23146 23148 28
18519 23146 23149 28
18520 23146 23150 28
18521 23151 23152 28
18522 23151 23153 28
18523 23151 23154 28
18524 23151 23155 28
18525 23156 23157 28
18526 23156 23158 28
18527 23156 23159 28
18528 23156 23160 28
18529 23161 23162 28
18530 23161 23163 28
18531 23161 23164 28
18532 23161 23165 28
18533 23166 23167 28
18534 23166 23168 28
18535 23166 23169 28
18536 23166 23170 28
18537 23171 23172 28
18538 23171 23173 28
18539 23171 23174 28
18540 23171 23175 28
18541 23176 23177 28
18542 23176 23178 28
18543 23176 23179 28
18544 23176 23180 28
18545 23181 23182 28
18546 23181 23183 28
18547 23181 23184 28
18548 23181 23185 28
18549 23186 23187 28
18550 23186 23188 28
18551 23186 23189 28
18552 23186 23190 28
18553 23191 23192 28
18554 23191 23193 28
18555 23191 23194 28
18556 23191 23195 28
18557 23196 23197 28
18558 23196 23198 28
18559 23196 23199 28
18560 23196 23200 28
18561 23201 23202 28
18562 23201 23203 28
18563 23201 23204 28
18564 23201 23205 28
18565 23206 23207 28
18566 23206 23208 28
18567 23206 23209 28
18568 23206 23210 28
18569 23211 23212 28
18570 23211 23213 28
18571 23211 23214 28
18572 23211 23215 28
18573 23216 23217 28
18574 23216 23218 28
18575 23216 23219 28
18576 23216 23220 28
18577 23221 23222 28
18578 23221 23223 28
18579 23221 23224 28
18580 23221 23225 28
18581 23226 23227 28
18582 23226 23228 28
18583 23226 23229 28
18584 23226 23230 28
18585 23231 23232 28
18586 23231 23233 28
18587 23231 23234 28
18588 23231 23235 28
18589 23236 23237 28
18590 23236 23238 28
18591 23236 23239 28
18592 23236 23240 28
18593 23241 23242 28
18594 23241 23243 28
18595 23241 23244 28
18596 23241 23245 28
18597 23246 23247 28
18598 23246 23248 28
18599 23246 23249 28
18600 23246 23250 28
18601 23251 23252 28
18602 23251 23253 28
18603 23251 23254 28
18604 23251 23255 28
18605 23256 23257 28
18606 23256 23258 28
18607 23256 23259 28
18608 23256 23260 28
18609 23261 23262 28
18610 23261 23263 28
18611 23261 23264 28
18612 23261 23265 28
18613 23266 23267 28
18614 23266 23268 28
18615 23266 23269 28
18616 23266 23270 28
18617 23271 23272 28
18618 23271 23273 28
18619 23271 23274 28
18620 23271 23275 28
18621 23276 23277 28
18622 23276 23278 28
18623 23276 23279 28
18624 23276 23280 28
18625 23281 23282 28
18626 23281 23283 28
18627 23281 23284 28
18628 23281 23285 28
18629 23286 23287 28
18630 23286 23288 28
18631 23286 23289 28
18632 23286 23290 28
18633 23291 23292 28
18634 23291 23293 28
18635 23291 23294 28
18636 23291 23295 28
18637 23296 23297 28
18638 23296 23298 28
18639 23296 23299 28
18640 23296 23300 28
18641 23301 23302 28
18642 23301 23303 28
18643 23301 23304 28
18644 23301 23305 28
18645 23306 23307 28
18646 23306 23308 28
18647 23306 23309 28
18648 23306 23310 28
18649 23311 23312 28
18650 23311 23313 28
18651 23311 23314 28
18652 23311 23315 28
18653 23316 23317 28
18654 23316 23318 28
18655 23316 23319 28
18656 23316 23320 28
18657 23321 23322 28
18658 23321 23323 28
18659 23321 23324 28
18660 23321 23325 28
18661 23326 23327 28
18662 23326 23328 28
18663 23326 23329 28
18664 23326 23330 28
18665 23331 23332 28
18666 23331 23333 28
18667 23331 23334 28
18668 23331 23335 28
18669 23336 23337 28
18670 23336 23338 28
18671 23336 23339 28
18672 23336 23340 28
18673 23341 23342 28
18674 23341 23343 28
18675 23341 23344 28
18676 23341 23345 28
18677 23346 23347 28
18678 23346 23348 28
18679 23346 23349 28
18680 23346 23350 28
18681 23351 23352 28
18682 23351 23353 28
18683 23351 23354 28
18684 23351 23355 28
18685 23356 23357 28
18686 23356 23358 28
18687 23356 23359 28
18688 23356 23360 28
18689 23361 23362 28
18690 23361 23363 28
18691 23361 23364 28
18692 23361 23365 28
18693 23366 23367 28
18694 23366 23368 28
18695 23366 23369 28
18696 23366 23370 28
18697 23371 23372 28
18698 23371 23373 28
18699 23371 23374 28
18700 23371 23375 28
18701 23376 23377 28
18702 23376 23378 28
18703 23376 23379 28
18704 23376 23380 28
18705 23381 23382 28
18706 23381 23383 28
18707 23381 23384 28
18708 23381 23385 28
18709 23386 23387 28
18710 23386 23388 28
18711 23386 23389 28
18712 23386 23390 28
18713 23391 23392 28
18714 23391 23393 28
18715 23391 23394 28
18716 23391 23395 28
18717 23396 23397 28
18718 23396 23398 28
18719 23396 23399 28
18720 23396 23400 28
18721 23401 23402 28
18722 23401 23403 28
18723 23401 23404 28
18724 23401 23405 28
18725 23406 23407 28
18726 23406 23408 28
18727 23406 23409 28
18728 23406 23410 28
18729 23411 23412 28
18730 23411 23413 28
18731 23411 23414 28
18732 23411 23415 28
18733 23416 23417 28
18734 23416 23418 28
18735 23416 23419 28
18736 23416 23420 28
18737 23421 23422 28
18738 23421 23423 28
18739 23421 23424 28
18740 23421 23425 28
18741 23426 23427 28
18742 23426 23428 28
18743 23426 23429 28
18744 23426 23430 28
18745 23431 23432 28
18746 23431 23433 28
18747 23431 23434 28
18748 23431 23435 28
18749 23436 23437 28
18750 23436 23438 28
18751 23436 23439 28
18752 23436 23440 28
18753 23441 23442 28
18754 23441 23443 28
18755 23441 23444 28
18756 23441 23445 28
18757 23446 23447 28
18758 23446 23448 28
18759 23446 23449 28
18760 23446 23450 28
18761 23451 23452 28
18762 23451 23453 28
18763 23451 23454 28
18764 23451 23455 28
18765 23456 23457 28
18766 23456 23458 28
18767 23456 23459 28
18768 23456 23460 28
18769 23461 23462 28
18770 23461 23463 28
18771 23461 23464 28
18772 23461 23465 28
18773 23466 23467 28
18774 23466 23468 28
18775 23466 23469 28
18776 23466 23470 28
18777 23471 23472 28
18778 23471 23473 28
18779 23471 23474 28
18780 23471 23475 28
18781 23476 23477 28
18782 23476 23478 28
18783 23476 23479 28
18784 23476 23480 28
18785 23481 23482 28
18786 23481 23483 28
18787 23481 23484 28
18788 23481 23485 28
18789 23486 23487 28
18790 23486 23488 28
18791 23486 23489 28
18792 23486 23490 28
18793 23491 23492 28
18794 23491 23493 28
18795 23491 23494 28
18796 23491 23495 28
18797 23496 23497 28
18798 23496 23498 28
18799 23496 23499 28
18800 23496 23500 28
18801 23501 23502 28
18802 23501 23503 28
18803 23501 23504 28
18804 23501 23505 28
18805 23506 23507 28
18806 23506 23508 28
18807 23506 23509 28
18808 23506 23510 28
18809 23511 23512 28
18810 23511 23513 28
18811 23511 23514 28
18812 23511 23515 28
18813 23516 23517 28
18814 23516 23518 28
18815 23516 23519 28
18816 23516 23520 28
18817 23521 23522 28
18818 23521 23523 28
18819 23521 23524 28
18820 23521 23525 28
18821 23526 23527 28
18822 23526 23528 28
18823 23526 23529 28
18824 23526 23530 28
18825 23531 23532 28
18826 23531 23533 28
18827 23531 23534 28
18828 23531 23535 28
18829 23536 23537 28
18830 23536 23538 28
18831 23536 23539 28
18832 23536 23540 28
18833 23541 23542 28
18834 23541 23543 28
18835 23541 23544 28
18836 23541 23545 28
18837 23546 23547 28
18838 23546 23548 28
18839 23546 23549 28
18840 23546 23550 28
18841 23551 23552 28
18842 23551 23553 28
18843 23551 23554 28
18844 23551 23555 28
18845 23556 23557 28
18846 23556 23558 28
18847 23556 23559 28
18848 23556 23560 28
18849 23561 23562 28
18850 23561 23563 28
18851 23561 23564 28
18852 23561 23565 28
18853 23566 23567 28
18854 23566 23568 28
18855 23566 23569 28
18856 23566 23570 28
18857 23571 23572 28
18858 23571 23573 28
18859 23571 23574 28
18860 23571 23575 28
18861 23576 23577 28
18862 23576 23578 28
18863 23576 23579 28
18864 23576 23580 28
18865 23581 23582 28
18866 23581 23583 28
18867 23581 23584 28
18868 23581 23585 28
18869 23586 23587 28
18870 23586 23588 28
18871 23586 23589 28
18872 23586 23590 28
18873 23591 23592 28
18874 23591 23593 28
18875 23591 23594 28
18876 23591 23595 28
18877 23596 23597 28
18878 23596 23598 28
18879 23596 23599 28
18880 23596 23600 28
18881 23601 23602 28
18882 23601 23603 28
18883 23601 23604 28
18884 23601 23605 28
18885 23606 23607 28
18886 23606 23608 28
18887 23606 23609 28
18888 23606 23610 28
18889 23611 23612 28
18890 23611 23613 28
18891 23611 23614 28
18892 23611 23615 28
18893 23616 23617 28
18894 23616 23618 28
18895 23616 23619 28
18896 23616 23620 28
18897 23621 23622 28
18898 23621 23623 28
18899 23621 23624 28
18900 23621 23625 28
18901 23626 23627 28
18902 23626 23628 28
18903 23626 23629 28
18904 23626 23630 28
18905 23631 23632 28
18906 23631 23633 28
18907 23631 23634 28
18908 23631 23635 28
18909 23636 23637 28
18910 23636 23638 28
18911 23636 23639 28
18912 23636 23640 28
18913 23641 23642 28
18914 23641 23643 28
18915 23641 23644 28
18916 23641 23645 28
18917 23646 23647 28
18918 23646 23648 28
18919 23646 23649 28
18920 23646 23650 28
18921 23651 23652 28
18922 23651 23653 28
18923 23651 23654 28
18924 23651 23655 28
18925 23656 23657 28
18926 23656 23658 28
18927 23656 23659 28
18928 23656 23660 28
18929 23661 23662 28
18930 23661 23663 28
18931 23661 23664 28
18932 23661 23665 28
18933 23666 23667 28
18934 23666 23668 28
18935 23666 23669 28
18936 23666 23670 28
18937 23671 23672 28
18938 23671 23673 28
18939 23671 23674 28
18940 23671 23675 28
18941 23676 23677 28
18942 23676 23678 28
18943 23676 23679 28
18944 23676 23680 28
18945 23681 23682 28
18946 23681 23683 28
18947 23681 23684 28
18948 23681 23685 28
18949 23686 23687 28
18950 23686 23688 28
18951 23686 23689 28
18952 23686 23690 28
18953 23691 23692 28
18954 23691 23693 28
18955 23691 23694 28
18956 23691 23695 28
18957 23696 23697 28
18958 23696 23698 28
18959 23696 23699 28
18960 23696 23700 28
18961 23701 23702 28
18962 23701 23703 28
18963 23701 23704 28
18964 23701 23705 28
18965 23706 23707 28
18966 23706 23708 28
18967 23706 23709 28
18968 23706 23710 28
18969 23711 23712 28
18970 23711 23713 28
18971 23711 23714 28
18972 23711 23715 28
18973 23716 23717 28
18974 23716 23718 28
18975 23716 23719 28
18976 23716 23720 28
18977 23721 23722 28
18978 23721 23723 28
18979 23721 23724 28
18980 23721 23725 28
18981 23726 23727 28
18982 23726 23728 28
18983 23726 23729 28
18984 23726 23730 28
18985 23731 23732 28
18986 23731 23733 28
18987 23731 23734 28
18988 23731 23735 28
18989 23736 23737 28
18990 23736 23738 28
18991 23736 23739 28
18992 23736 23740 28
18993 23741 23742 28
18994 23741 23743 28
18995 23741 23744 28
18996 23741 23745 28
18997 23746 23747 28
18998 23746 23748 28
18999 23746 23749 28
19000 23746 23750 28
19001 23751 23752 28
19002 23751 23753 28
19003 23751 23754 28
19004 23751 23755 28
19005 23756 23757 28
19006 23756 23758 28
19007 23756 23759 28
19008 23756 23760 28
19009 23761 23762 28
19010 23761 23763 28
19011 23761 23764 28
19012 23761 23765 28
19013 23766 23767 28
19014 23766 23768 28
19015 23766 23769 28
19016 23766 23770 28
19017 23771 23772 28
19018 23771 23773 28
19019 23771 23774 28
19020 23771 23775 28
19021 23776 23777 28
19022 23776 23778 28
19023 23776 23779 28
19024 23776 23780 28
19025 23781 23782 28
19026 23781 23783 28
19027 23781 23784 28
19028 23781 23785 28
19029 23786 23787 28
19030 23786 23788 28
19031 23786 23789 28
19032 23786 23790 28
19033 23791 23792 28
19034 23791 23793 28
19035 23791 23794 28
19036 23791 23795 28
19037 23796 23797 28
19038 23796 23798 28
19039 23796 23799 28
19040 23796 23800 28
19041 23801 23802 28
19042 23801 23803 28
19043 23801 23804 28
19044 23801 23805 28
19045 23806 23807 28
19046 23806 23808 28
19047 23806 23809 28
19048 23806 23810 28
19049 23811 23812 28
19050 23811 23813 28
19051 23811 23814 28
19052 23811 23815 28
19053 23816 23817 28
19054 23816 23818 28
19055 23816 23819 28
19056 23816 23820 28
19057 23821 23822 28
19058 23821 23823 28
19059 23821 23824 28
19060 23821 23825 28
19061 23826 23827 28
19062 23826 23828 28
19063 23826 23829 28
19064 23826 23830 28
19065 23831 23832 28
19066 23831 23833 28
19067 23831 23834 28
19068 23831 23835 28
19069 23836 23837 28
19070 23836 23838 28
19071 23836 23839 28
19072 23836 23840 28
19073 23841 23842 28
19074 23841 23843 28
19075 23841 23844 28
19076 23841 23845 28
19077 23846 23847 28
19078 23846 23848 28
19079 23846 23849 28
19080 23846 23850 28
19081 23851 23852 28
19082 23851 23853 28
19083 23851 23854 28
19084 23851 23855 28
19085 23856 23857 28
19086 23856 23858 28
19087 23856 23859 28
19088 23856 23860 28
19089 23861 23862 28
19090 23861 23863 28
19091 23861 23864 28
19092 23861 23865 28
19093 23866 23867 28
19094 23866 23868 28
19095 23866 23869 28
19096 23866 23870 28
19097 23871 23872 28
19098 23871 23873 28
19099 23871 23874 28
19100 23871 23875 28
19101 23876 23877 28
19102 23876 23878 28
19103 23876 23879 28
19104 23876 23880 28
19105 23881 23882 28
19106 23881 23883 28
19107 23881 23884 28
19108 23881 23885 28
19109 23886 23887 28
19110 23886 23888 28
19111 23886 23889 28
19112 23886 23890 28
19113 23891 23892 28
19114 23891 23893 28
19115 23891 23894 28
19116 23891 23895 28
19117 23896 23897 28
19118 23896 23898 28
19119 23896 23899 28
19120 23896 23900 28
19121 23901 23902 28
19122 23901 23903 28
19123 23901 23904 28
19124 23901 23905 28
19125 23906 23907 28
19126 23906 23908 28
19127 23906 23909 28
19128 23906 23910 28
19129 23911 23912 28
19130 23911 23913 28
19131 23911 23914 28
19132 23911 23915 28
19133 23916 23917 28
19134 23916 23918 28
19135 23916 23919 28
19136 23916 23920 28
19137 23921 23922 28
19138 23921 23923 28
19139 23921 23924 28
19140 23921 23925 28
19141 23926 23927 28
19142 23926 23928 28
19143 23926 23929 28
19144 23926 23930 28
19145 23931 23932 28
19146 23931 23933 28
19147 23931 23934 28
19148 23931 23935 28
19149 23936 23937 28
19150 23936 23938 28
19151 23936 23939 28
19152 23936 23940 28
19153 23941 23942 28
19154 23941 23943 28
19155 23941 23944 28
19156 23941 23945 28
19157 23946 23947 28
19158 23946 23948 28
19159 23946 23949 28
19160 23946 23950 28
19161 23951 23952 28
19162 23951 23953 28
19163 23951 23954 28
19164 23951 23955 28
19165 23956 23957 28
19166 23956 23958 28
19167 23956 23959 28
19168 23956 23960 28
19169 23961 23962 28
19170 23961 23963 28
19171 23961 23964 28
19172 23961 23965 28
19173 23966 23967 28
19174 23966 23968 28
19175 23966 23969 28
19176 23966 23970 28
19177 23971 23972 28
19178 23971 23973 28
19179 23971 23974 28
19180 23971 23975 28
19181 23976 23977 28
19182 23976 23978 28
19183 23976 23979 28
19184 23976 23980 28
19185 23981 23982 28
19186 23981 23983 28
19187 23981 23984 28
19188 23981 23985 28
19189 23986 23987 28
19190 23986 23988 28
19191 23986 23989 28
19192 23986 23990 28
19193 23991 23992 28
19194 23991 23993 28
19195 23991 23994 28
19196 23991 23995 28
19197 23996 23997 28
19198 23996 23998 28
19199 23996 23999 28
19200 23996 24000 28
19201 24001 24002 28
19202 24001 24003 28
19203 24001 24004 28
19204 24001 24005 28
19205 24006 24007 28
19206 24006 24008 28
19207 24006 24009 28
19208 24006 24010 28
19209 24011 24012 28
19210 24011 24013 28
19211 24011 24014 28
19212 24011 24015 28
19213 24016 24017 28
19214 24016 24018 28
19215 24016 24019 28
19216 24016 24020 28
19217 24021 24022 28
19218 24021 24023 28
19219 24021 24024 28
19220 24021 24025 28
19221 24026 24027 28
19222 24026 24028 28
19223 24026 24029 28
19224 24026 24030 28
19225 24031 24032 28
19226 24031 24033 28
19227 24031 24034 28
19228 24031 24035 28
19229 24036 24037 28
19230 24036 24038 28
19231 24036 24039 28
19232 24036 24040 28
19233 24041 24042 28
19234 24041 24043 28
19235 24041 24044 28
19236 24041 24045 28
19237 24046 24047 28
19238 24046 24048 28
19239 24046 24049 28
19240 24046 24050 28
19241 24051 24052 28
19242 24051 24053 28
19243 24051 24054 28
19244 24051 24055 28
19245 24056 24057 28
19246 24056 24058 28
19247 24056 24059 28
19248 24056 24060 28
19249 24061 24062 28
19250 24061 24063 28
19251 24061 24064 28
19252 24061 24065 28
19253 24066 24067 28
19254 24066 24068 28
19255 24066 24069 28
19256 24066 24070 28
19257 24071 24072 28
19258 24071 24073 28
19259 24071 24074 28
19260 24071 24075 28
19261 24076 24077 28
19262 24076 24078 28
19263 24076 24079 28
19264 24076 24080 28
19265 24081 24082 28
19266 24081 24083 28
19267 24081 24084 28
19268 24081 24085 28
19269 24086 24087 28
19270 24086 24088 28
19271 24086 24089 28
19272 24086 24090 28
19273 24091 24092 28
19274 24091 24093 28
19275 24091 24094 28
19276 24091 24095 28
19277 24096 24097 28
19278 24096 24098 28
19279 24096 24099 28
19280 24096 24100 28
19281 24101 24102 28
19282 24101 24103 28
19283 24101 24104 28
19284 24101 24105 28
19285 24106 24107 28
19286 24106 24108 28
19287 24106 24109 28
19288 24106 24110 28
19289 24111 24112 28
19290 24111 24113 28
19291 24111 24114 28
19292 24111 24115 28
19293 24116 24117 28
19294 24116 24118 28
19295 24116 24119 28
19296 24116 24120 28
19297 24121 24122 28
19298 24121 24123 28
19299 24121 24124 28
19300 24121 24125 28
19301 24126 24127 28
19302 24126 24128 28
19303 24126 24129 28
19304 24126 24130 28
19305 24131 24132 28
19306 24131 24133 28
19307 24131 24134 28
19308 24131 24135 28
19309 24136 24137 28
19310 24136 24138 28
19311 24136 24139 28
19312 24136 24140 28
19313 24141 24142 28
19314 24141 24143 28
19315 24141 24144 28
19316 24141 24145 28
19317 24146 24147 28
19318 24146 24148 28
19319 24146 24149 28
19320 24146 24150 28
19321 24151 24152 28
19322 24151 24153 28
19323 24151 24154 28
19324 24151 24155 28
19325 24156 24157 28
19326 24156 24158 28
19327 24156 24159 28
19328 24156 24160 28
19329 24161 24162 28
19330 24161 24163 28
19331 24161 24164 28
19332 24161 24165 28
19333 24166 24167 28
19334 24166 24168 28
19335 24166 24169 28
19336 24166 24170 28
19337 24171 24172 28
19338 24171 24173 28
19339 24171 24174 28
19340 24171 24175 28
19341 24176 24177 28
19342 24176 24178 28
19343 24176 24179 28
19344 24176 24180 28
19345 24181 24182 28
19346 24181 24183 28
19347 24181 24184 28
19348 24181 24185 28
19349 24186 24187 28
19350 24186 24188 28
19351 24186 24189 28
19352 24186 24190 28
19353 24191 24192 28
19354 24191 24193 28
19355 24191 24194 28
19356 24191 24195 28
19357 24196 24197 28
19358 24196 24198 28
19359 24196 24199 28
19360 24196 24200 28
19361 24201 24202 28
19362 24201 24203 28
19363 24201 24204 28
19364 24201 24205 28
19365 24206 24207 28
19366 24206 24208 28
19367 24206 24209 28
19368 24206 24210 28
19369 24211 24212 28
19370 24211 24213 28
19371 24211 24214 28
19372 24211 24215 28
19373 24216 24217 28
19374 24216 24218 28
19375 24216 24219 28
19376 24216 24220 28
19377 24221 24222 28
19378 24221 24223 28
19379 24221 24224 28
19380 24221 24225 28
19381 24226 24227 28
19382 24226 24228 28
19383 24226 24229 28
19384 24226 24230 28
19385 24231 24232 28
19386 24231 24233 28
19387 24231 24234 28
19388 24231 24235 28
19389 24236 24237 28
19390 24236 24238 28
19391 24236 24239 28
19392 24236 24240 28
19393 24241 24242 28
19394 24241 24243 28
19395 24241 24244 28
19396 24241 24245 28
19397 24246 24247 28
19398 24246 24248 28
19399 24246 24249 28
19400 24246 24250 28
19401 24251 24252 28
19402 24251 24253 28
19403 24251 24254 28
19404 24251 24255 28
19405 24256 24257 28
19406 24256 24258 28
19407 24256 24259 28
19408 24256 24260 28
19409 24261 24262 28
19410 24261 24263 28
19411 24261 24264 28
19412 24261 24265 28
19413 24266 24267 28
19414 24266 24268 28
19415 24266 24269 28
19416 24266 24270 28
19417 24271 24272 28
19418 24271 24273 28
19419 24271 24274 28
19420 24271 24275 28
19421 24276 24277 28
19422 24276 24278 28
19423 24276 24279 28
19424 24276 24280 28
19425 24281 24282 28
19426 24281 24283 28
19427 24281 24284 28
19428 24281 24285 28
19429 24286 24287 28
19430 24286 24288 28
19431 24286 24289 28
19432 24286 24290 28
19433 24291 24292 28
19434 24291 24293 28
19435 24291 24294 28
19436 24291 24295 28
19437 24296 24297 28
19438 24296 24298 28
19439 24296 24299 28
19440 24296 24300 28
19441 24301 24302 28
19442 24301 24303 28
19443 24301 24304 28
19444 24301 24305 28
19445 24306 24307 28
19446 24306 24308 28
19447 24306 24309 28
19448 24306 24310 28
19449 24311 24312 28
19450 24311 24313 28
19451 24311 24314 28
19452 24311 24315 28
19453 24316 24317 28
19454 24316 24318 28
19455 24316 24319 28
19456 24316 24320 28
19457 24321 24322 28
19458 24321 24323 28
19459 24321 24324 28
19460 24321 24325 28
19461 24326 24327 28
19462 24326 24328 28
19463 24326 24329 28
19464 24326 24330 28
19465 24331 24332 28
19466 24331 24333 28
19467 24331 24334 28
19468 24331 24335 28
19469 24336 24337 28
19470 24336 24338 28
19471 24336 24339 28
19472 24336 24340 28
19473 24341 24342 28
19474 24341 24343 28
19475 24341 24344 28
19476 24341 24345 28
19477 24346 24347 28
19478 24346 24348 28
19479 24346 24349 28
19480 24346 24350 28
19481 24351 24352 28
19482 24351 24353 28
19483 24351 24354 28
19484 24351 24355 28
19485 24356 24357 28
19486 24356 24358 28
19487 24356 24359 28
19488 24356 24360 28
19489 24361 24362 28
19490 24361 24363 28
19491 24361 24364 28
19492 24361 24365 28
19493 24366 24367 28
19494 24366 24368 28
19495 24366 24369 28
19496 24366 24370 28
19497 24371 24372 28
19498 24371 24373 28
19499 24371 24374 28
19500 24371 24375 28
19501 24376 24377 28
19502 24376 24378 28
19503 24376 24379 28
19504 24376 24380 28
19505 24381 24382 28
19506 24381 24383 28
19507 24381 24384 28
19508 24381 24385 28
19509 24386 24387 28
19510 24386 24388 28
19511 24386 24389 28
19512 24386 24390 28
19513 24391 24392 28
19514 24391 24393 28
19515 24391 24394 28
19516 24391 24395 28
19517 24396 24397 28
19518 24396 24398 28
19519 24396 24399 28
19520 24396 24400 28
19521 24401 24402 28
19522 24401 24403 28
19523 24401 24404 28
19524 24401 24405 28
19525 24406 24407 28
19526 24406 24408 28
19527 24406 24409 28
19528 24406 24410 28
19529 24411 24412 28
19530 24411 24413 28
19531 24411 24414 28
19532 24411 24415 28
19533 24416 24417 28
19534 24416 24418 28
19535 24416 24419 28
19536 24416 24420 28
19537 24421 24422 28
19538 24421 24423 28
19539 24421 24424 28
19540 24421 24425 28
19541 24426 24427 28
19542 24426 24428 28
19543 24426 24429 28
19544 24426 24430 28
19545 24431 24432 28
19546 24431 24433 28
19547 24431 24434 28
19548 24431 24435 28
19549 24436 24437 28
19550 24436 24438 28
19551 24436 24439 28
19552 24436 24440 28
19553 24441 24442 28
19554 24441 24443 28
19555 24441 24444 28
19556 24441 24445 28
19557 24446 24447 28
19558 24446 24448 28
19559 24446 24449 28
19560 24446 24450 28
19561 24451 24452 28
19562 24451 24453 28
19563 24451 24454 28
19564 24451 24455 28
19565 24456 24457 28
19566 24456 24458 28
19567 24456 24459 28
19568 24456 24460 28
19569 24461 24462 28
19570 24461 24463 28
19571 24461 24464 28
19572 24461 24465 28
19573 24466 24467 28
19574 24466 24468 28
19575 24466 24469 28
19576 24466 24470 28
19577 24471 24472 28
19578 24471 24473 28
19579 24471 24474 28
19580 24471 24475 28
19581 24476 24477 28
19582 24476 24478 28
19583 24476 24479 28
19584 24476 24480 28
19585 24481 24482 28
19586 24481 24483 28
19587 24481 24484 28
19588 24481 24485 28
19589 24486 24487 28
19590 24486 24488 28
19591 24486 24489 28
19592 24486 24490 28
19593 24491 24492 28
19594 24491 24493 28
19595 24491 24494 28
19596 24491 24495 28
19597 24496 24497 28
19598 24496 24498 28
19599 24496 24499 28
19600 24496 24500 28
19601 24501 24502 28
19602 24501 24503 28
19603 24501 24504 28
19604 24501 24505 28
19605 24506 24507 28
19606 24506 24508 28
19607 24506 24509 28
19608 24506 24510 28
19609 24511 24512 28
19610 24511 24513 28
19611 24511 24514 28
19612 24511 24515 28
19613 24516 24517 28
19614 24516 24518 28
19615 24516 24519 28
19616 24516 24520 28
19617 24521 24522 28
19618 24521 24523 28
19619 24521 24524 28
19620 24521 24525 28
19621 24526 24527 28
19622 24526 24528 28
19623 24526 24529 28
19624 24526 24530 28
19625 24531 24532 28
19626 24531 24533 28
19627 24531 24534 28
19628 24531 24535 28
19629 24536 24537 28
19630 24536 24538 28
19631 24536 24539 28
19632 24536 24540 28
19633 24541 24542 28
19634 24541 24543 28
19635 24541 24544 28
19636 24541 24545 28
19637 24546 24547 28
19638 24546 24548 28
19639 24546 24549 28
19640 24546 24550 28
19641 24551 24552 28
19642 24551 24553 28
19643 24551 24554 28
19644 24551 24555 28
19645 24556 24557 28
19646 24556 24558 28
19647 24556 24559 28
19648 24556 24560 28
19649 24561 24562 28
19650 24561 24563 28
19651 24561 24564 28
19652 24561 24565 28
19653 24566 24567 28
19654 24566 24568 28
19655 24566 24569 28
19656 24566 24570 28
19657 24571 24572 28
19658 24571 24573 28
19659 24571 24574 28
19660 24571 24575 28
19661 24576 24577 28
19662 24576 24578 28
19663 24576 24579 28
19664 24576 24580 28
19665 24581 24582 28
19666 24581 24583 28
19667 24581 24584 28
19668 24581 24585 28
19669 24586 24587 28
19670 24586 24588 28
19671 24586 24589 28
19672 24586 24590 28
19673 24591 24592 28
19674 24591 24593 28
19675 24591 24594 28
19676 24591 24595 28
19677 24596 24597 28
19678 24596 24598 28
19679 24596 24599 28
19680 24596 24600 28
19681 24601 24602 28
19682 24601 24603 28
19683 24601 24604 28
19684 24601 24605 28
19685 24606 24607 28
19686 24606 24608 28
19687 24606 24609 28
19688 24606 24610 28
19689 24611 24612 28
19690 24611 24613 28
19691 24611 24614 28
19692 24611 24615 28
19693 24616 24617 28
19694 24616 24618 28
19695 24616 24619 28
19696 24616 24620 28
19697 24621 24622 28
19698 24621 24623 28
19699 24621 24624 28
19700 24621 24625 28
19701 24626 24627 28
19702 24626 24628 28
19703 24626 24629 28
19704 24626 24630 28
19705 24631 24632 28
19706 24631 24633 28
19707 24631 24634 28
19708 24631 24635 28
19709 24636 24637 28
19710 24636 24638 28
19711 24636 24639 28
19712 24636 24640 28
19713 24641 24642 28
19714 24641 24643 28
19715 24641 24644 28
19716 24641 24645 28
19717 24646 24647 28
19718 24646 24648 28
19719 24646 24649 28
19720 24646 24650 28
19721 24651 24652 28
19722 24651 24653 28
19723 24651 24654 28
19724 24651 24655 28
19725 24656 24657 28
19726 24656 24658 28
19727 24656 24659 28
19728 24656 24660 28
19729 24661 24662 28
19730 24661 24663 28
19731 24661 24664 28
19732 24661 24665 28
19733 24666 24667 28
19734 24666 24668 28
19735 24666 24669 28
19736 24666 24670 28
19737 24671 24672 28
19738 24671 24673 28
19739 24671 24674 28
19740 24671 24675 28
19741 24676 24677 28
19742 24676 24678 28
19743 24676 24679 28
19744 24676 24680 28
19745 24681 24682 28
19746 24681 24683 28
19747 24681 24684 28
19748 24681 24685 28
19749 24686 24687 28
19750 24686 24688 28
19751 24686 24689 28
19752 24686 24690 28
19753 24691 24692 28
19754 24691 24693 28
19755 24691 24694 28
19756 24691 24695 28
19757 24696 24697 28
19758 24696 24698 28
19759 24696 24699 28
19760 24696 24700 28
19761 24701 24702 28
19762 24701 24703 28
19763 24701 24704 28
19764 24701 24705 28
19765 24706 24707 28
19766 24706 24708 28
19767 24706 24709 28
19768 24706 24710 28
19769 24711 24712 28
19770 24711 24713 28
19771 24711 24714 28
19772 24711 24715 28
19773 24716 24717 28
19774 24716 24718 28
19775 24716 24719 28
19776 24716 24720 28
19777 24721 24722 28
19778 24721 24723 28
19779 24721 24724 28
19780 24721 24725 28
19781 24726 24727 28
19782 24726 24728 28
19783 24726 24729 28
19784 24726 24730 28
19785 24731 24732 28
19786 24731 24733 28
19787 24731 24734 28
19788 24731 24735 28
19789 24736 24737 28
19790 24736 24738 28
19791 24736 24739 28
19792 24736 24740 28
19793 24741 24742 28
19794 24741 24743 28
19795 24741 24744 28
19796 24741 24745 28
19797 24746 24747 28
19798 24746 24748 28
19799 24746 24749 28
19800 24746 24750 28
19801 24751 24752 28
19802 24751 24753 28
19803 24751 24754 28
19804 24751 24755 28
19805 24756 24757 28
19806 24756 24758 28
19807 24756 24759 28
19808 24756 24760 28
19809 24761 24762 28
19810 24761 24763 28
19811 24761 24764 28
19812 24761 24765 28
19813 24766 24767 28
19814 24766 24768 28
19815 24766 24769 28
19816 24766 24770 28
19817 24771 24772 28
19818 24771 24773 28
19819 24771 24774 28
19820 24771 24775 28
19821 24776 24777 28
19822 24776 24778 28
19823 24776 24779 28
19824 24776 24780 28
19825 24781 24782 28
19826 24781 24783 28
19827 24781 24784 28
19828 24781 24785 28
19829 24786 24787 28
19830 24786 24788 28
19831 24786 24789 28
19832 24786 24790 28
19833 24791 24792 28
19834 24791 24793 28
19835 24791 24794 28
19836 24791 24795 28
19837 24796 24797 28
19838 24796 24798 28
19839 24796 24799 28
19840 24796 24800 28
19841 24801 24802 28
19842 24801 24803 28
19843 24801 24804 28
19844 24801 24805 28
19845 24806 24807 28
19846 24806 24808 28
19847 24806 24809 28
19848 24806 24810 28
19849 24811 24812 28
19850 24811 24813 28
19851 24811 24814 28
19852 24811 24815 28
19853 24816 24817 28
19854 24816 24818 28
19855 24816 24819 28
19856 24816 24820 28
19857 24821 24822 28
19858 24821 24823 28
19859 24821 24824 28
19860 24821 24825 28
19861 24826 24827 28
19862 24826 24828 28
19863 24826 24829 28
19864 24826 24830 28
19865 24831 24832 28
19866 24831 24833 28
19867 24831 24834 28
19868 24831 24835 28
19869 24836 24837 28
19870 24836 24838 28
19871 24836 24839 28
19872 24836 24840 28
19873 24841 24842 28
19874 24841 24843 28
19875 24841 24844 28
19876 24841 24845 28
19877 24846 24847 28
19878 24846 24848 28
19879 24846 24849 28
19880 24846 24850 28
19881 24851 24852 28
19882 24851 24853 28
19883 24851 24854 28
19884 24851 24855 28
19885 24856 24857 28
19886 24856 24858 28
19887 24856 24859 28
19888 24856 24860 28
19889 24861 24862 28
19890 24861 24863 28
19891 24861 24864 28
19892 24861 24865 28
19893 24866 24867 28
19894 24866 24868 28
19895 24866 24869 28
19896 24866 24870 28
19897 24871 24872 28
19898 24871 24873 28
19899 24871 24874 28
19900 24871 24875 28
19901 24876 24877 28
19902 24876 24878 28
19903 24876 24879 28
19904 24876 24880 28
19905 24881 24882 28
19906 24881 24883 28
19907 24881 24884 28
19908 24881 24885 28
19909 24886 24887 28
19910 24886 24888 28
19911 24886 24889 28
19912 24886 24890 28
19913 24891 24892 28
19914 24891 24893 28
19915 24891 24894 28
19916 24891 24895 28
19917 24896 24897 28
19918 24896 24898 28
19919 24896 24899 28
19920 24896 24900 28
19921 24901 24902 28
19922 24901 24903 28
19923 24901 24904 28
19924 24901 24905 28
19925 24906 24907 28
19926 24906 24908 28
19927 24906 24909 28
19928 24906 24910 28
19929 24911 24912 28
19930 24911 24913 28
19931 24911 24914 28
19932 24911 24915 28
19933 24916 24917 28
19934 24916 24918 28
19935 24916 24919 28
19936 24916 24920 28
19937 24921 24922 28
19938 24921 24923 28
19939 24921 24924 28
19940 24921 24925 28
19941 24926 24927 28
19942 24926 24928 28
19943 24926 24929 28
19944 24926 24930 28
19945 24931 24932 28
19946 24931 24933 28
19947 24931 24934 28
19948 24931 24935 28
19949 24936 24937 28
19950 24936 24938 28
19951 24936 24939 28
19952 24936 24940 28
19953 24941 24942 28
19954 24941 24943 28
19955 24941 24944 28
19956 24941 24945 28
19957 24946 24947 28
19958 24946 24948 28
19959 24946 24949 28
19960 24946 24950 28
19961 24951 24952 28
19962 24951 24953 28
19963 24951 24954 28
19964 24951 24955 28
19965 24956 24957 28
19966 24956 24958 28
19967 24956 24959 28
19968 24956 24960 28
19969 24961 24962 28
19970 24961 24963 28
19971 24961 24964 28
19972 24961 24965 28
19973 24966 24967 28
19974 24966 24968 28
19975 24966 24969 28
19976 24966 24970 28
19977 24971 24972 28
19978 24971 24973 28
19979 24971 24974 28
19980 24971 24975 28
19981 24976 24977 28
19982 24976 24978 28
19983 24976 24979 28
19984 24976 24980 28
19985 24981 24982 28
19986 24981 24983 28
19987 24981 24984 28
19988 24981 24985 28
19989 24986 24987 28
19990 24986 24988 28
19991 24986 24989 28
19992 24986 24990 28
19993 24991 24992 28
19994 24991 24993 28
19995 24991 24994 28
19996 24991 24995 28
19997 24996 24997 28
19998 24996 24998 28
19999 24996 24999 28
20000 24996 25000 28
20001 25001 25002 28
20002 25001 25003 28
20003 25001 25004 28
20004 25001 25005 28
20005 25006 25007 28
20006 25006 25008 28
20007 25006 25009 28
20008 25006 25010 28
20009 25011 25012 28
20010 25011 25013 28
20011 25011 25014 28
20012 25011 25015 28
20013 25016 25017 28
20014 25016 25018 28
20015 25016 25019 28
20016 25016 25020 28
20017 25021 25022 28
20018 25021 25023 28
20019 25021 25024 28
20020 25021 25025 28
20021 25026 25027 28
20022 25026 25028 28
20023 25026 25029 28
20024 25026 25030 28
20025 25031 25032 28
20026 25031 25033 28
20027 25031 25034 28
20028 25031 25035 28
20029 25036 25037 28
20030 25036 25038 28
20031 25036 25039 28
20032 25036 25040 28
20033 25041 25042 28
20034 25041 25043 28
20035 25041 25044 28
20036 25041 25045 28
20037 25046 25047 28
20038 25046 25048 28
20039 25046 25049 28
20040 25046 25050 28
20041 25051 25052 28
20042 25051 25053 28
20043 25051 25054 28
20044 25051 25055 28
20045 25056 25057 28
20046 25056 25058 28
20047 25056 25059 28
20048 25056 25060 28
20049 25061 25062 28
20050 25061 25063 28
20051 25061 25064 28
20052 25061 25065 28
20053 25066 25067 28
20054 25066 25068 28
20055 25066 25069 28
20056 25066 25070 28
20057 25071 25072 28
20058 25071 25073 28
20059 25071 25074 28
20060 25071 25075 28
20061 25076 25077 28
20062 25076 25078 28
20063 25076 25079 28
20064 25076 25080 28
20065 25081 25082 28
20066 25081 25083 28
20067 25081 25084 28
20068 25081 25085 28
20069 25086 25087 28
20070 25086 25088 28
20071 25086 25089 28
20072 25086 25090 28
20073 25091 25092 28
20074 25091 25093 28
20075 25091 25094 28
20076 25091 25095 28
20077 25096 25097 28
20078 25096 25098 28
20079 25096 25099 28
20080 25096 25100 28
20081 25101 25102 28
20082 25101 25103 28
20083 25101 25104 28
20084 25101 25105 28
20085 25106 25107 28
20086 25106 25108 28
20087 25106 25109 28
20088 25106 25110 28
20089 25111 25112 28
20090 25111 25113 28
20091 25111 25114 28
20092 25111 25115 28
20093 25116 25117 28
20094 25116 25118 28
20095 25116 25119 28
20096 25116 25120 28
20097 25121 25122 28
20098 25121 25123 28
20099 25121 25124 28
20100 25121 25125 28
20101 25126 25127 28
20102 25126 25128 28
20103 25126 25129 28
20104 25126 25130 28
20105 25131 25132 28
20106 25131 25133 28
20107 25131 25134 28
20108 25131 25135 28
20109 25136 25137 28
20110 25136 25138 28
20111 25136 25139 28
20112 25136 25140 28
20113 25141 25142 28
20114 25141 25143 28
20115 25141 25144 28
20116 25141 25145 28
20117 25146 25147 28
20118 25146 25148 28
20119 25146 25149 28
20120 25146 25150 28
20121 25151 25152 28
20122 25151 25153 28
20123 25151 25154 28
20124 25151 25155 28
20125 25156 25157 28
20126 25156 25158 28
20127 25156 25159 28
20128 25156 25160 28
20129 25161 25162 28
20130 25161 25163 28
20131 25161 25164 28
20132 25161 25165 28
20133 25166 25167 28
20134 25166 25168 28
20135 25166 25169 28
20136 25166 25170 28
20137 25171 25172 28
20138 25171 25173 28
20139 25171 25174 28
20140 25171 25175 28
20141 25176 25177 28
20142 25176 25178 28
20143 25176 25179 28
20144 25176 25180 28
20145 25181 25182 28
20146 25181 25183 28
20147 25181 25184 28
20148 25181 25185 28
20149 25186 25187 28
20150 25186 25188 28
20151 25186 25189 28
20152 25186 25190 28
20153 25191 25192 28
20154 25191 25193 28
20155 25191 25194 28
20156 25191 25195 28
20157 25196 25197 28
20158 25196 25198 28
20159 25196 25199 28
20160 25196 25200 28
20161 25201 25202 28
20162 25201 25203 28
20163 25201 25204 28
20164 25201 25205 28
20165 25206 25207 28
20166 25206 25208 28
20167 25206 25209 28
20168 25206 25210 28
20169 25211 25212 28
20170 25211 25213 28
20171 25211 25214 28
20172 25211 25215 28
20173 25216 25217 28
20174 25216 25218 28
20175 25216 25219 28
20176 25216 25220 28
20177 25221 25222 28
20178 25221 25223 28
20179 25221 25224 28
20180 25221 25225 28
20181 25226 25227 28
20182 25226 25228 28
20183 25226 25229 28
20184 25226 25230 28
20185 25231 25232 28
20186 25231 25233 28
20187 25231 25234 28
20188 25231 25235 28
20189 25236 25237 28
20190 25236 25238 28
20191 25236 25239 28
20192 25236 25240 28
20193 25241 25242 28
20194 25241 25243 28
20195 25241 25244 28
20196 25241 25245 28
20197 25246 25247 28
20198 25246 25248 28
20199 25246 25249 28
20200 25246 25250 28
20201 25251 25252 28
20202 25251 25253 28
20203 25251 25254 28
20204 25251 25255 28
20205 25256 25257 28
20206 25256 25258 28
20207 25256 25259 28
20208 25256 25260 28
20209 25261 25262 28
20210 25261 25263 28
20211 25261 25264 28
20212 25261 25265 28
20213 25266 25267 28
20214 25266 25268 28
20215 25266 25269 28
20216 25266 25270 28
20217 25271 25272 28
20218 25271 25273 28
20219 25271 25274 28
20220 25271 25275 28
20221 25276 25277 28
20222 25276 25278 28
20223 25276 25279 28
20224 25276 25280 28
20225 25281 25282 28
20226 25281 25283 28
20227 25281 25284 28
20228 25281 25285 28
20229 25286 25287 28
20230 25286 25288 28
20231 25286 25289 28
20232 25286 25290 28
20233 25291 25292 28
20234 25291 25293 28
20235 25291 25294 28
20236 25291 25295 28
20237 25296 25297 28
20238 25296 25298 28
20239 25296 25299 28
20240 25296 25300 28
20241 25301 25302 28
20242 25301 25303 28
20243 25301 25304 28
20244 25301 25305 28
20245 25306 25307 28
20246 25306 25308 28
20247 25306 25309 28
20248 25306 25310 28
20249 25311 25312 28
20250 25311 25313 28
20251 25311 25314 28
20252 25311 25315 28
20253 25316 25317 28
20254 25316 25318 28
20255 25316 25319 28
20256 25316 25320 28
20257 25321 25322 28
20258 25321 25323 28
20259 25321 25324 28
20260 25321 25325 28
20261 25326 25327 28
20262 25326 25328 28
20263 25326 25329 28
20264 25326 25330 28
20265 25331 25332 28
20266 25331 25333 28
20267 25331 25334 28
20268 25331 25335 28
20269 25336 25337 28
20270 25336 25338 28
20271 25336 25339 28
20272 25336 25340 28
20273 25341 25342 28
20274 25341 25343 28
20275 25341 25344 28
20276 25341 25345 28
20277 25346 25347 28
20278 25346 25348 28
20279 25346 25349 28
20280 25346 25350 28
20281 25351 25352 28
20282 25351 25353 28
20283 25351 25354 28
20284 25351 25355 28
20285 25356 25357 28
20286 25356 25358 28
20287 25356 25359 28
20288 25356 25360 28
20289 25361 25362 28
20290 25361 25363 28
20291 25361 25364 28
20292 25361 25365 28
20293 25366 25367 28
20294 25366 25368 28
20295 25366 25369 28
20296 25366 25370 28
20297 25371 25372 28
20298 25371 25373 28
20299 25371 25374 28
20300 25371 25375 28
20301 25376 25377 28
20302 25376 25378 28
20303 25376 25379 28
20304 25376 25380 28
20305 25381 25382 28
20306 25381 25383 28
20307 25381 25384 28
20308 25381 25385 28
20309 25386 25387 28
20310 25386 25388 28
20311 25386 25389 28
20312 25386 25390 28
20313 25391 25392 28
20314 25391 25393 28
20315 25391 25394 28
20316 25391 25395 28
20317 25396 25397 28
20318 25396 25398 28
20319 25396 25399 28
20320 25396 25400 28
20321 25401 25402 28
20322 25401 25403 28
20323 25401 25404 28
20324 25401 25405 28
20325 25406 25407 28
20326 25406 25408 28
20327 25406 25409 28
20328 25406 25410 28
20329 25411 25412 28
20330 25411 25413 28
20331 25411 25414 28
20332 25411 25415 28
20333 25416 25417 28
20334 25416 25418 28
20335 25416 25419 28
20336 25416 25420 28
20337 25421 25422 28
20338 25421 25423 28
20339 25421 25424 28
20340 25421 25425 28
20341 25426 25427 28
20342 25426 25428 28
20343 25426 25429 28
20344 25426 25430 28
20345 25431 25432 28
20346 25431 25433 28
20347 25431 25434 28
20348 25431 25435 28
20349 25436 25437 28
20350 25436 25438 28
20351 25436 25439 28
20352 25436 25440 28
20353 25441 25442 28
20354 25441 25443 28
20355 25441 25444 28
20356 25441 25445 28
20357 25446 25447 28
20358 25446 25448 28
20359 25446 25449 28
20360 25446 25450 28
20361 25451 25452 28
20362 25451 25453 28
20363 25451 25454 28
20364 25451 25455 28
20365 25456 25457 28
20366 25456 25458 28
20367 25456 25459 28
20368 25456 25460 28
20369 25461 25462 28
20370 25461 25463 28
20371 25461 25464 28
20372 25461 25465 28
20373 25466 25467 28
20374 25466 25468 28
20375 25466 25469 28
20376 25466 25470 28
20377 25471 25472 28
20378 25471 25473 28
20379 25471 25474 28
20380 25471 25475 28
20381 25476 25477 28
20382 25476 25478 28
20383 25476 25479 28
20384 25476 25480 28
20385 25481 25482 28
20386 25481 25483 28
20387 25481 25484 28
20388 25481 25485 28
20389 25486 25487 28
20390 25486 25488 28
20391 25486 25489 28
20392 25486 25490 28
20393 25491 25492 28
20394 25491 25493 28
20395 25491 25494 28
20396 25491 25495 28
20397 25496 25497 28
20398 25496 25498 28
20399 25496 25499 28
20400 25496 25500 28
20401 25501 25502 28
20402 25501 25503 28
20403 25501 25504 28
20404 25501 25505 28
20405 25506 25507 28
20406 25506 25508 28
20407 25506 25509 28
20408 25506 25510 28
20409 25511 25512 28
20410 25511 25513 28
20411 25511 25514 28
20412 25511 25515 28
20413 25516 25517 28
20414 25516 25518 28
20415 25516 25519 28
20416 25516 25520 28
20417 25521 25522 28
20418 25521 25523 28
20419 25521 25524 28
20420 25521 25525 28
20421 25526 25527 28
20422 25526 25528 28
20423 25526 25529 28
20424 25526 25530 28
20425 25531 25532 28
20426 25531 25533 28
20427 25531 25534 28
20428 25531 25535 28
20429 25536 25537 28
20430 25536 25538 28
20431 25536 25539 28
20432 25536 25540 28
20433 25541 25542 28
20434 25541 25543 28
20435 25541 25544 28
20436 25541 25545 28
20437 25546 25547 28
20438 25546 25548 28
20439 25546 25549 28
20440 25546 25550 28
20441 25551 25552 28
20442 25551 25553 28
20443 25551 25554 28
20444 25551 25555 28
20445 25556 25557 28
20446 25556 25558 28
20447 25556 25559 28
20448 25556 25560 28
20449 25561 25562 28
20450 25561 25563 28
20451 25561 25564 28
20452 25561 25565 28
20453 25566 25567 28
20454 25566 25568 28
20455 25566 25569 28
20456 25566 25570 28
20457 25571 25572 28
20458 25571 25573 28
20459 25571 25574 28
20460 25571 25575 28
20461 25576 25577 28
20462 25576 25578 28
20463 25576 25579 28
20464 25576 25580 28
20465 25581 25582 28
20466 25581 25583 28
20467 25581 25584 28
20468 25581 25585 28
20469 25586 25587 28
20470 25586 25588 28
20471 25586 25589 28
20472 25586 25590 28
20473 25591 25592 28
20474 25591 25593 28
20475 25591 25594 28
20476 25591 25595 28
20477 25596 25597 28
20478 25596 25598 28
20479 25596 25599 28
20480 25596 25600 28
20481 25601 25602 28
20482 25601 25603 28
20483 25601 25604 28
20484 25601 25605 28
20485 25606 25607 28
20486 25606 25608 28
20487 25606 25609 28
20488 25606 25610 28
20489 25611 25612 28
20490 25611 25613 28
20491 25611 25614 28
20492 25611 25615 28
20493 25616 25617 28
20494 25616 25618 28
20495 25616 25619 28
20496 25616 25620 28
20497 25621 25622 28
20498 25621 25623 28
20499 25621 25624 28
20500 25621 25625 28
20501 25626 25627 28
20502 25626 25628 28
20503 25626 25629 28
20504 25626 25630 28
20505 25631 25632 28
20506 25631 25633 28
20507 25631 25634 28
20508 25631 25635 28
20509 25636 25637 28
20510 25636 25638 28
20511 25636 25639 28
20512 25636 25640 28
20513 25641 25642 28
20514 25641 25643 28
20515 25641 25644 28
20516 25641 25645 28
20517 25646 25647 28
20518 25646 25648 28
20519 25646 25649 28
20520 25646 25650 28
20521 25651 25652 28
20522 25651 25653 28
20523 25651 25654 28
20524 25651 25655 28
20525 25656 25657 28
20526 25656 25658 28
20527 25656 25659 28
20528 25656 25660 28
20529 25661 25662 28
20530 25661 25663 28
20531 25661 25664 28
20532 25661 25665 28
20533 25666 25667 28
20534 25666 25668 28
20535 25666 25669 28
20536 25666 25670 28
20537 25671 25672 28
20538 25671 25673 28
20539 25671 25674 28
20540 25671 25675 28
20541 25676 25677 28
20542 25676 25678 28
20543 25676 25679 28
20544 25676 25680 28
20545 25681 25682 28
20546 25681 25683 28
20547 25681 25684 28
20548 25681 25685 28
20549 25686 25687 28
20550 25686 25688 28
20551 25686 25689 28
20552 25686 25690 28
20553 25691 25692 28
20554 25691 25693 28
20555 25691 25694 28
20556 25691 25695 28
20557 25696 25697 28
20558 25696 25698 28
20559 25696 25699 28
20560 25696 25700 28
20561 25701 25702 28
20562 25701 25703 28
20563 25701 25704 28
20564 25701 25705 28
20565 25706 25707 28
20566 25706 25708 28
20567 25706 25709 28
20568 25706 25710 28
20569 25711 25712 28
20570 25711 25713 28
20571 25711 25714 28
20572 25711 25715 28
20573 25716 25717 28
20574 25716 25718 28
20575 25716 25719 28
20576 25716 25720 28
20577 25721 25722 28
20578 25721 25723 28
20579 25721 25724 28
20580 25721 25725 28
20581 25726 25727 28
20582 25726 25728 28
20583 25726 25729 28
20584 25726 25730 28
20585 25731 25732 28
20586 25731 25733 28
20587 25731 25734 28
20588 25731 25735 28
20589 25736 25737 28
20590 25736 25738 28
20591 25736 25739 28
20592 25736 25740 28
20593 25741 25742 28
20594 25741 25743 28
20595 25741 25744 28
20596 25741 25745 28
20597 25746 25747 28
20598 25746 25748 28
20599 25746 25749 28
20600 25746 25750 28
20601 25751 25752 28
20602 25751 25753 28
20603 25751 25754 28
20604 25751 25755 28
20605 25756 25757 28
20606 25756 25758 28
20607 25756 25759 28
20608 25756 25760 28
20609 25761 25762 28
20610 25761 25763 28
20611 25761 25764 28
20612 25761 25765 28
20613 25766 25767 28
20614 25766 25768 28
20615 25766 25769 28
20616 25766 25770 28
20617 25771 25772 28
20618 25771 25773 28
20619 25771 25774 28
20620 25771 25775 28
20621 25776 25777 28
20622 25776 25778 28
20623 25776 25779 28
20624 25776 25780 28
20625 25781 25782 28
20626 25781 25783 28
20627 25781 25784 28
20628 25781 25785 28
20629 25786 25787 28
20630 25786 25788 28
20631 25786 25789 28
20632 25786 25790 28
20633 25791 25792 28
20634 25791 25793 28
20635 25791 25794 28
20636 25791 25795 28
20637 25796 25797 28
20638 25796 25798 28
20639 25796 25799 28
20640 25796 25800 28
20641 25801 25802 28
20642 25801 25803 28
20643 25801 25804 28
20644 25801 25805 28
20645 25806 25807 28
20646 25806 25808 28
20647 25806 25809 28
20648 25806 25810 28
20649 25811 25812 28
20650 25811 25813 28
20651 25811 25814 28
20652 25811 25815 28
20653 25816 25817 28
20654 25816 25818 28
20655 25816 25819 28
20656 25816 25820 28
20657 25821 25822 28
20658 25821 25823 28
20659 25821 25824 28
20660 25821 25825 28
20661 25826 25827 28
20662 25826 25828 28
20663 25826 25829 28
20664 25826 25830 28
20665 25831 25832 28
20666 25831 25833 28
20667 25831 25834 28
20668 25831 25835 28
20669 25836 25837 28
20670 25836 25838 28
20671 25836 25839 28
20672 25836 25840 28
20673 25841 25842 28
20674 25841 25843 28
20675 25841 25844 28
20676 25841 25845 28
20677 25846 25847 28
20678 25846 25848 28
20679 25846 25849 28
20680 25846 25850 28
20681 25851 25852 28
20682 25851 25853 28
20683 25851 25854 28
20684 25851 25855 28
20685 25856 25857 28
20686 25856 25858 28
20687 25856 25859 28
20688 25856 25860 28
20689 25861 25862 28
20690 25861 25863 28
20691 25861 25864 28
20692 25861 25865 28
20693 25866 25867 28
20694 25866 25868 28
20695 25866 25869 28
20696 25866 25870 28
20697 25871 25872 28
20698 25871 25873 28
20699 25871 25874 28
20700 25871 25875 28
20701 25876 25877 28
20702 25876 25878 28
20703 25876 25879 28
20704 25876 25880 28
20705 25881 25882 28
20706 25881 25883 28
20707 25881 25884 28
20708 25881 25885 28
20709 25886 25887 28
20710 25886 25888 28
20711 25886 25889 28
20712 25886 25890 28
20713 25891 25892 28
20714 25891 25893 28
20715 25891 25894 28
20716 25891 25895 28
20717 25896 25897 28
20718 25896 25898 28
20719 25896 25899 28
20720 25896 25900 28
20721 25901 25902 28
20722 25901 25903 28
20723 25901 25904 28
20724 25901 25905 28
20725 25906 25907 28
20726 25906 25908 28
20727 25906 25909 28
20728 25906 25910 28
20729 25911 25912 28
20730 25911 25913 28
20731 25911 25914 28
20732 25911 25915 28
20733 25916 25917 28
20734 25916 25918 28
20735 25916 25919 28
20736 25916 25920 28
20737 25921 25922 28
20738 25921 25923 28
20739 25921 25924 28
20740 25921 25925 28
20741 25926 25927 28
20742 25926 25928 28
20743 25926 25929 28
20744 25926 25930 28
20745 25931 25932 28
20746 25931 25933 28
20747 25931 25934 28
20748 25931 25935 28
20749 25936 25937 28
20750 25936 25938 28
20751 25936 25939 28
20752 25936 25940 28
20753 25941 25942 28
20754 25941 25943 28
20755 25941 25944 28
20756 25941 25945 28
20757 25946 25947 28
20758 25946 25948 28
20759 25946 25949 28
20760 25946 25950 28
20761 25951 25952 28
20762 25951 25953 28
20763 25951 25954 28
20764 25951 25955 28
20765 25956 25957 28
20766 25956 25958 28
20767 25956 25959 28
20768 25956 25960 28
20769 25961 25962 28
20770 25961 25963 28
20771 25961 25964 28
20772 25961 25965 28
20773 25966 25967 28
20774 25966 25968 28
20775 25966 25969 28
20776 25966 25970 28
20777 25971 25972 28
20778 25971 25973 28
20779 25971 25974 28
20780 25971 25975 28
20781 25976 25977 28
20782 25976 25978 28
20783 25976 25979 28
20784 25976 25980 28
20785 25981 25982 28
20786 25981 25983 28
20787 25981 25984 28
20788 25981 25985 28
20789 25986 25987 28
20790 25986 25988 28
20791 25986 25989 28
20792 25986 25990 28
20793 25991 25992 28
20794 25991 25993 28
20795 25991 25994 28
20796 25991 25995 28
20797 25996 25997 28
20798 25996 25998 28
20799 25996 25999 28
20800 25996 26000 28
20801 26001 26002 28
20802 26001 26003 28
20803 26001 26004 28
20804 26001 26005 28
20805 26006 26007 28
20806 26006 26008 28
20807 26006 26009 28
20808 26006 26010 28
20809 26011 26012 28
20810 26011 26013 28
20811 26011 26014 28
20812 26011 26015 28
20813 26016 26017 28
20814 26016 26018 28
20815 26016 26019 28
20816 26016 26020 28
20817 26021 26022 28
20818 26021 26023 28
20819 26021 26024 28
20820 26021 26025 28
20821 26026 26027 28
20822 26026 26028 28
20823 26026 26029 28
20824 26026 26030 28
20825 26031 26032 28
20826 26031 26033 28
20827 26031 26034 28
20828 26031 26035 28
20829 26036 26037 28
20830 26036 26038 28
20831 26036 26039 28
20832 26036 26040 28
20833 26041 26042 28
20834 26041 26043 28
20835 26041 26044 28
20836 26041 26045 28
20837 26046 26047 28
20838 26046 26048 28
20839 26046 26049 28
20840 26046 26050 28
20841 26051 26052 28
20842 26051 26053 28
20843 26051 26054 28
20844 26051 26055 28
20845 26056 26057 28
20846 26056 26058 28
20847 26056 26059 28
20848 26056 26060 28
20849 26061 26062 28
20850 26061 26063 28
20851 26061 26064 28
20852 26061 26065 28
20853 26066 26067 28
20854 26066 26068 28
20855 26066 26069 28
20856 26066 26070 28
20857 26071 26072 28
20858 26071 26073 28
20859 26071 26074 28
20860 26071 26075 28
20861 26076 26077 28
20862 26076 26078 28
20863 26076 26079 28
20864 26076 26080 28
20865 26081 26082 28
20866 26081 26083 28
20867 26081 26084 28
20868 26081 26085 28
20869 26086 26087 28
20870 26086 26088 28
20871 26086 26089 28
20872 26086 26090 28
20873 26091 26092 28
20874 26091 26093 28
20875 26091 26094 28
20876 26091 26095 28
20877 26096 26097 28
20878 26096 26098 28
20879 26096 26099 28
20880 26096 26100 28
20881 26101 26102 28
20882 26101 26103 28
20883 26101 26104 28
20884 26101 26105 28
20885 26106 26107 28
20886 26106 26108 28
20887 26106 26109 28
20888 26106 26110 28
20889 26111 26112 28
20890 26111 26113 28
20891 26111 26114 28
20892 26111 26115 28
20893 26116 26117 28
20894 26116 26118 28
20895 26116 26119 28
20896 26116 26120 28
20897 26121 26122 28
20898 26121 26123 28
20899 26121 26124 28
20900 26121 26125 28
20901 26126 26127 28
20902 26126 26128 28
20903 26126 26129 28
20904 26126 26130 28
20905 26131 26132 28
20906 26131 26133 28
20907 26131 26134 28
20908 26131 26135 28
20909 26136 26137 28
20910 26136 26138 28
20911 26136 26139 28
20912 26136 26140 28
20913 26141 26142 28
20914 26141 26143 28
20915 26141 26144 28
20916 26141 26145 28
20917 26146 26147 28
20918 26146 26148 28
20919 26146 26149 28
20920 26146 26150 28
20921 26151 26152 28
20922 26151 26153 28
20923 26151 26154 28
20924 26151 26155 28
20925 26156 26157 28
20926 26156 26158 28
20927 26156 26159 28
20928 26156 26160 28
20929 26161 26162 28
20930 26161 26163 28
20931 26161 26164 28
20932 26161 26165 28
20933 26166 26167 28
20934 26166 26168 28
20935 26166 26169 28
20936 26166 26170 28
20937 26171 26172 28
20938 26171 26173 28
20939 26171 26174 28
20940 26171 26175 28
20941 26176 26177 28
20942 26176 26178 28
20943 26176 26179 28
20944 26176 26180 28
20945 26181 26182 28
20946 26181 26183 28
20947 26181 26184 28
20948 26181 26185 28
20949 26186 26187 28
20950 26186 26188 28
20951 26186 26189 28
20952 26186 26190 28
20953 26191 26192 28
20954 26191 26193 28
20955 26191 26194 28
20956 26191 26195 28
20957 26196 26197 28
20958 26196 26198 28
20959 26196 26199 28
20960 26196 26200 28
20961 26201 26202 28
20962 26201 26203 28
20963 26201 26204 28
20964 26201 26205 28
20965 26206 26207 28
20966 26206 26208 28
20967 26206 26209 28
20968 26206 26210 28
20969 26211 26212 28
20970 26211 26213 28
20971 26211 26214 28
20972 26211 26215 28
20973 26216 26217 28
20974 26216 26218 28
20975 26216 26219 28
20976 26216 26220 28
20977 26221 26222 28
20978 26221 26223 28
20979 26221 26224 28
20980 26221 26225 28
20981 26226 26227 28
20982 26226 26228 28
20983 26226 26229 28
20984 26226 26230 28
20985 26231 26232 28
20986 26231 26233 28
20987 26231 26234 28
20988 26231 26235 28
20989 26236 26237 28
20990 26236 26238 28
20991 26236 26239 28
20992 26236 26240 28
20993 26241 26242 28
20994 26241 26243 28
20995 26241 26244 28
20996 26241 26245 28
20997 26246 26247 28
20998 26246 26248 28
20999 26246 26249 28
21000 26246 26250 28
21001 26251 26252 28
21002 26251 26253 28
21003 26251 26254 28
21004 26251 26255 28
21005 26256 26257 28
21006 26256 26258 28
21007 26256 26259 28
21008 26256 26260 28
21009 26261 26262 28
21010 26261 26263 28
21011 26261 26264 28
21012 26261 26265 28
21013 26266 26267 28
21014 26266 26268 28
21015 26266 26269 28
21016 26266 26270 28
21017 26271 26272 28
21018 26271 26273 28
21019 26271 26274 28
21020 26271 26275 28
21021 26276 26277 28
21022 26276 26278 28
21023 26276 26279 28
21024 26276 26280 28
21025 26281 26282 28
21026 26281 26283 28
21027 26281 26284 28
21028 26281 26285 28
21029 26286 26287 28
21030 26286 26288 28
21031 26286 26289 28
21032 26286 26290 28
21033 26291 26292 28
21034 26291 26293 28
21035 26291 26294 28
21036 26291 26295 28
21037 26296 26297 28
21038 26296 26298 28
21039 26296 26299 28
21040 26296 26300 28
21041 26301 26302 28
21042 26301 26303 28
21043 26301 26304 28
21044 26301 26305 28
21045 26306 26307 28
21046 26306 26308 28
21047 26306 26309 28
21048 26306 26310 28
21049 26311 26312 28
21050 26311 26313 28
21051 26311 26314 28
21052 26311 26315 28
21053 26316 26317 28
21054 26316 26318 28
21055 26316 26319 28
21056 26316 26320 28
21057 26321 26322 28
21058 26321 26323 28
21059 26321 26324 28
21060 26321 26325 28
21061 26326 26327 28
21062 26326 26328 28
21063 26326 26329 28
21064 26326 26330 28
21065 26331 26332 28
21066 26331 26333 28
21067 26331 26334 28
21068 26331 26335 28
21069 26336 26337 28
21070 26336 26338 28
21071 26336 26339 28
21072 26336 26340 28
21073 26341 26342 28
21074 26341 26343 28
21075 26341 26344 28
21076 26341 26345 28
21077 26346 26347 28
21078 26346 26348 28
21079 26346 26349 28
21080 26346 26350 28
21081 26351 26352 28
21082 26351 26353 28
21083 26351 26354 28
21084 26351 26355 28
21085 26356 26357 28
21086 26356 26358 28
21087 26356 26359 28
21088 26356 26360 28
21089 26361 26362 28
21090 26361 26363 28
21091 26361 26364 28
21092 26361 26365 28
21093 26366 26367 28
21094 26366 26368 28
21095 26366 26369 28
21096 26366 26370 28
21097 26371 26372 28
21098 26371 26373 28
21099 26371 26374 28
21100 26371 26375 28
21101 26376 26377 28
21102 26376 26378 28
21103 26376 26379 28
21104 26376 26380 28
21105 26381 26382 28
21106 26381 26383 28
21107 26381 26384 28
21108 26381 26385 28
21109 26386 26387 28
21110 26386 26388 28
21111 26386 26389 28
21112 26386 26390 28
21113 26391 26392 28
21114 26391 26393 28
21115 26391 26394 28
21116 26391 26395 28
21117 26396 26397 28
21118 26396 26398 28
21119 26396 26399 28
21120 26396 26400 28
21121 26401 26402 28
21122 26401 26403 28
21123 26401 26404 28
21124 26401 26405 28
21125 26406 26407 28
21126 26406 26408 28
21127 26406 26409 28
21128 26406 26410 28
21129 26411 26412 28
21130 26411 26413 28
21131 26411 26414 28
21132 26411 26415 28
21133 26416 26417 28
21134 26416 26418 28
21135 26416 26419 28
21136 26416 26420 28
21137 26421 26422 28
21138 26421 26423 28
21139 26421 26424 28
21140 26421 26425 28
21141 26426 26427 28
21142 26426 26428 28
21143 26426 26429 28
21144 26426 26430 28
21145 26431 26432 28
21146 26431 26433 28
21147 26431 26434 28
21148 26431 26435 28
21149 26436 26437 28
21150 26436 26438 28
21151 26436 26439 28
21152 26436 26440 28
21153 26441 26442 28
21154 26441 26443 28
21155 26441 26444 28
21156 26441 26445 28
21157 26446 26447 28
21158 26446 26448 28
21159 26446 26449 28
21160 26446 26450 28
21161 26451 26452 28
21162 26451 26453 28
21163 26451 26454 28
21164 26451 26455 28
21165 26456 26457 28
21166 26456 26458 28
21167 26456 26459 28
21168 26456 26460 28
21169 26461 26462 28
21170 26461 26463 28
21171 26461 26464 28
21172 26461 26465 28
21173 26466 26467 28
21174 26466 26468 28
21175 26466 26469 28
21176 26466 26470 28
21177 26471 26472 28
21178 26471 26473 28
21179 26471 26474 28
21180 26471 26475 28
21181 26476 26477 28
21182 26476 26478 28
21183 26476 26479 28
21184 26476 26480 28
21185 26481 26482 28
21186 26481 26483 28
21187 26481 26484 28
21188 26481 26485 28
21189 26486 26487 28
21190 26486 26488 28
21191 26486 26489 28
21192 26486 26490 28
21193 26491 26492 28
21194 26491 26493 28
21195 26491 26494 28
21196 26491 26495 28
21197 26496 26497 28
21198 26496 26498 28
21199 26496 26499 28
21200 26496 26500 28
21201 26501 26502 28
21202 26501 26503 28
21203 26501 26504 28
21204 26501 26505 28
21205 26506 26507 28
21206 26506 26508 28
21207 26506 26509 28
21208 26506 26510 28
21209 26511 26512 28
21210 26511 26513 28
21211 26511 26514 28
21212 26511 26515 28
21213 26516 26517 28
21214 26516 26518 28
21215 26516 26519 28
21216 26516 26520 28
21217 26521 26522 28
21218 26521 26523 28
21219 26521 26524 28
21220 26521 26525 28
21221 26526 26527 28
21222 26526 26528 28
21223 26526 26529 28
21224 26526 26530 28
21225 26531 26532 28
21226 26531 26533 28
21227 26531 26534 28
21228 26531 26535 28
21229 26536 26537 28
21230 26536 26538 28
21231 26536 26539 28
21232 26536 26540 28
21233 26541 26542 28
21234 26541 26543 28
21235 26541 26544 28
21236 26541 26545 28
21237 26546 26547 28
21238 26546 26548 28
21239 26546 26549 28
21240 26546 26550 28
21241 26551 26552 28
21242 26551 26553 28
21243 26551 26554 28
21244 26551 26555 28
21245 26556 26557 28
21246 26556 26558 28
21247 26556 26559 28
21248 26556 26560 28
21249 26561 26562 28
21250 26561 26563 28
21251 26561 26564 28
21252 26561 26565 28
21253 26566 26567 28
21254 26566 26568 28
21255 26566 26569 28
21256 26566 26570 28
21257 26571 26572 28
21258 26571 26573 28
21259 26571 26574 28
21260 26571 26575 28
21261 26576 26577 28
21262 26576 26578 28
21263 26576 26579 28
21264 26576 26580 28
21265 26581 26582 28
21266 26581 26583 28
21267 26581 26584 28
21268 26581 26585 28
21269 26586 26587 28
21270 26586 26588 28
21271 26586 26589 28
21272 26586 26590 28
21273 26591 26592 28
21274 26591 26593 28
21275 26591 26594 28
21276 26591 26595 28
21277 26596 26597 28
21278 26596 26598 28
21279 26596 26599 28
21280 26596 26600 28
21281 26601 26602 28
21282 26601 26603 28
21283 26601 26604 28
21284 26601 26605 28
21285 26606 26607 28
21286 26606 26608 28
21287 26606 26609 28
21288 26606 26610 28
21289 26611 26612 28
21290 26611 26613 28
21291 26611 26614 28
21292 26611 26615 28
21293 26616 26617 28
21294 26616 26618 28
21295 26616 26619 28
21296 26616 26620 28
21297 26621 26622 28
21298 26621 26623 28
21299 26621 26624 28
21300 26621 26625 28
21301 26626 26627 28
21302 26626 26628 28
21303 26626 26629 28
21304 26626 26630 28
21305 26631 26632 28
21306 26631 26633 28
21307 26631 26634 28
21308 26631 26635 28
21309 26636 26637 28
21310 26636 26638 28
21311 26636 26639 28
21312 26636 26640 28
21313 26641 26642 28
21314 26641 26643 28
21315 26641 26644 28
21316 26641 26645 28
21317 26646 26647 28
21318 26646 26648 28
21319 26646 26649 28
21320 26646 26650 28
21321 26651 26652 28
21322 26651 26653 28
21323 26651 26654 28
21324 26651 26655 28
21325 26656 26657 28
21326 26656 26658 28
21327 26656 26659 28
21328 26656 26660 28
21329 26661 26662 28
21330 26661 26663 28
21331 26661 26664 28
21332 26661 26665 28
21333 26666 26667 28
21334 26666 26668 28
21335 26666 26669 28
21336 26666 26670 28
21337 26671 26672 28
21338 26671 26673 28
21339 26671 26674 28
21340 26671 26675 28
21341 26676 26677 28
21342 26676 26678 28
21343 26676 26679 28
21344 26676 26680 28
21345 26681 26682 28
21346 26681 26683 28
21347 26681 26684 28
21348 26681 26685 28
21349 26686 26687 28
21350 26686 26688 28
21351 26686 26689 28
21352 26686 26690 28
21353 26691 26692 28
21354 26691 26693 28
21355 26691 26694 28
21356 26691 26695 28
21357 26696 26697 28
21358 26696 26698 28
21359 26696 26699 28
21360 26696 26700 28
21361 26701 26702 28
21362 26701 26703 28
21363 26701 26704 28
21364 26701 26705 28
21365 26706 26707 28
21366 26706 26708 28
21367 26706 26709 28
21368 26706 26710 28
21369 26711 26712 28
21370 26711 26713 28
21371 26711 26714 28
21372 26711 26715 28
21373 26716 26717 28
21374 26716 26718 28
21375 26716 26719 28
21376 26716 26720 28
21377 26721 26722 28
21378 26721 26723 28
21379 26721 26724 28
21380 26721 26725 28
21381 26726 26727 28
21382 26726 26728 28
21383 26726 26729 28
21384 26726 26730 28
21385 26731 26732 28
21386 26731 26733 28
21387 26731 26734 28
21388 26731 26735 28
21389 26736 26737 28
21390 26736 26738 28
21391 26736 26739 28
21392 26736 26740 28
21393 26741 26742 28
21394 26741 26743 28
21395 26741 26744 28
21396 26741 26745 28
21397 26746 26747 28
21398 26746 26748 28
21399 26746 26749 28
21400 26746 26750 28
21401 26751 26752 28
21402 26751 26753 28
21403 26751 26754 28
21404 26751 26755 28
21405 26756 26757 28
21406 26756 26758 28
21407 26756 26759 28
21408 26756 26760 28
21409 26761 26762 28
21410 26761 26763 28
21411 26761 26764 28
21412 26761 26765 28
21413 26766 26767 28
21414 26766 26768 28
21415 26766 26769 28
21416 26766 26770 28
21417 26771 26772 28
21418 26771 26773 28
21419 26771 26774 28
21420 26771 26775 28
21421 26776 26777 28
21422 26776 26778 28
21423 26776 26779 28
21424 26776 26780 28
21425 26781 26782 28
21426 26781 26783 28
21427 26781 26784 28
21428 26781 26785 28
21429 26786 26787 28
21430 26786 26788 28
21431 26786 26789 28
21432 26786 26790 28
21433 26791 26792 28
21434 26791 26793 28
21435 26791 26794 28
21436 26791 26795 28
21437 26796 26797 28
21438 26796 26798 28
21439 26796 26799 28
21440 26796 26800 28
21441 26801 26802 28
21442 26801 26803 28
21443 26801 26804 28
21444 26801 26805 28
21445 26806 26807 28
21446 26806 26808 28
21447 26806 26809 28
21448 26806 26810 28
21449 26811 26812 28
21450 26811 26813 28
21451 26811 26814 28
21452 26811 26815 28
21453 26816 26817 28
21454 26816 26818 28
21455 26816 26819 28
21456 26816 26820 28
21457 26821 26822 28
21458 26821 26823 28
21459 26821 26824 28
21460 26821 26825 28
21461 26826 26827 28
21462 26826 26828 28
21463 26826 26829 28
21464 26826 26830 28
21465 26831 26832 28
21466 26831 26833 28
21467 26831 26834 28
21468 26831 26835 28
21469 26836 26837 28
21470 26836 26838 28
21471 26836 26839 28
21472 26836 26840 28
21473 26841 26842 28
21474 26841 26843 28
21475 26841 26844 28
21476 26841 26845 28
21477 26846 26847 28
21478 26846 26848 28
21479 26846 26849 28
21480 26846 26850 28
21481 26851 26852 28
21482 26851 26853 28
21483 26851 26854 28
21484 26851 26855 28
21485 26856 26857 28
21486 26856 26858 28
21487 26856 26859 28
21488 26856 26860 28
21489 26861 26862 28
21490 26861 26863 28
21491 26861 26864 28
21492 26861 26865 28
21493 26866 26867 28
21494 26866 26868 28
21495 26866 26869 28
21496 26866 26870 28
21497 26871 26872 28
21498 26871 26873 28
21499 26871 26874 28
21500 26871 26875 28
21501 26876 26877 28
21502 26876 26878 28
21503 26876 26879 28
21504 26876 26880 28
21505 26881 26882 28
21506 26881 26883 28
21507 26881 26884 28
21508 26881 26885 28
21509 26886 26887 28
21510 26886 26888 28
21511 26886 26889 28
21512 26886 26890 28
21513 26891 26892 28
21514 26891 26893 28
21515 26891 26894 28
21516 26891 26895 28
21517 26896 26897 28
21518 26896 26898 28
21519 26896 26899 28
21520 26896 26900 28
21521 26901 26902 28
21522 26901 26903 28
21523 26901 26904 28
21524 26901 26905 28
21525 26906 26907 28
21526 26906 26908 28
21527 26906 26909 28
21528 26906 26910 28
21529 26911 26912 28
21530 26911 26913 28
21531 26911 26914 28
21532 26911 26915 28
21533 26916 26917 28
21534 26916 26918 28
21535 26916 26919 28
21536 26916 26920 28
21537 26921 26922 28
21538 26921 26923 28
21539 26921 26924 28
21540 26921 26925 28
21541 26926 26927 28
21542 26926 26928 28
21543 26926 26929 28
21544 26926 26930 28
21545 26931 26932 28
21546 26931 26933 28
21547 26931 26934 28
21548 26931 26935 28
21549 26936 26937 28
21550 26936 26938 28
21551 26936 26939 28
21552 26936 26940 28
21553 26941 26942 28
21554 26941 26943 28
21555 26941 26944 28
21556 26941 26945 28
21557 26946 26947 28
21558 26946 26948 28
21559 26946 26949 28
21560 26946 26950 28
21561 26951 26952 28
21562 26951 26953 28
21563 26951 26954 28
21564 26951 26955 28
21565 26956 26957 28
21566 26956 26958 28
21567 26956 26959 28
21568 26956 26960 28
21569 26961 26962 28
21570 26961 26963 28
21571 26961 26964 28
21572 26961 26965 28
21573 26966 26967 28
21574 26966 26968 28
21575 26966 26969 28
21576 26966 26970 28
21577 26971 26972 28
21578 26971 26973 28
21579 26971 26974 28
21580 26971 26975 28
21581 26976 26977 28
21582 26976 26978 28
21583 26976 26979 28
21584 26976 26980 28
21585 26981 26982 28
21586 26981 26983 28
21587 26981 26984 28
21588 26981 26985 28
21589 26986 26987 28
21590 26986 26988 28
21591 26986 26989 28
21592 26986 26990 28
21593 26991 26992 28
21594 26991 26993 28
21595 26991 26994 28
21596 26991 26995 28
21597 26996 26997 28
21598 26996 26998 28
21599 26996 26999 28
21600 26996 27000 28
21601 27001 27002 28
21602 27001 27003 28
21603 27001 27004 28
21604 27001 27005 28
21605 27006 27007 28
21606 27006 27008 28
21607 27006 27009 28
21608 27006 27010 28
21609 27011 27012 28
21610 27011 27013 28
21611 27011 27014 28
21612 27011 27015 28
21613 27016 27017 28
21614 27016 27018 28
21615 27016 27019 28
21616 27016 27020 28
21617 27021 27022 28
21618 27021 27023 28
21619 27021 27024 28
21620 27021 27025 28
21621 27026 27027 28
21622 27026 27028 28
21623 27026 27029 28
21624 27026 27030 28
21625 27031 27032 28
21626 27031 27033 28
21627 27031 27034 28
21628 27031 27035 28
21629 27036 27037 28
21630 27036 27038 28
21631 27036 27039 28
21632 27036 27040 28
21633 27041 27042 28
21634 27041 27043 28
21635 27041 27044 28
21636 27041 27045 28
21637 27046 27047 28
21638 27046 27048 28
21639 27046 27049 28
21640 27046 27050 28
21641 27051 27052 28
21642 27051 27053 28
21643 27051 27054 28
21644 27051 27055 28
21645 27056 27057 28
21646 27056 27058 28
21647 27056 27059 28
21648 27056 27060 28
21649 27061 27062 28
21650 27061 27063 28
21651 27061 27064 28
21652 27061 27065 28
21653 27066 27067 28
21654 27066 27068 28
21655 27066 27069 28
21656 27066 27070 28
21657 27071 27072 28
21658 27071 27073 28
21659 27071 27074 28
21660 27071 27075 28
21661 27076 27077 28
21662 27076 27078 28
21663 27076 27079 28
21664 27076 27080 28
21665 27081 27082 28
21666 27081 27083 28
21667 27081 27084 28
21668 27081 27085 28
21669 27086 27087 28
21670 27086 27088 28
21671 27086 27089 28
21672 27086 27090 28
21673 27091 27092 28
21674 27091 27093 28
21675 27091 27094 28
21676 27091 27095 28
21677 27096 27097 28
21678 27096 27098 28
21679 27096 27099 28
21680 27096 27100 28
21681 27101 27102 28
21682 27101 27103 28
21683 27101 27104 28
21684 27101 27105 28
21685 27106 27107 28
21686 27106 27108 28
21687 27106 27109 28
21688 27106 27110 28
21689 27111 27112 28
21690 27111 27113 28
21691 27111 27114 28
21692 27111 27115 28
21693 27116 27117 28
21694 27116 27118 28
21695 27116 27119 28
21696 27116 27120 28
21697 27121 27122 28
21698 27121 27123 28
21699 27121 27124 28
21700 27121 27125 28
21701 27126 27127 28
21702 27126 27128 28
21703 27126 27129 28
21704 27126 27130 28
21705 27131 27132 28
21706 27131 27133 28
21707 27131 27134 28
21708 27131 27135 28
21709 27136 27137 28
21710 27136 27138 28
21711 27136 27139 28
21712 27136 27140 28
21713 27141 27142 28
21714 27141 27143 28
21715 27141 27144 28
21716 27141 27145 28
21717 27146 27147 28
21718 27146 27148 28
21719 27146 27149 28
21720 27146 27150 28
21721 27151 27152 28
21722 27151 27153 28
21723 27151 27154 28
21724 27151 27155 28
21725 27156 27157 28
21726 27156 27158 28
21727 27156 27159 28
21728 27156 27160 28
21729 27161 27162 28
21730 27161 27163 28
21731 27161 27164 28
21732 27161 27165 28
21733 27166 27167 28
21734 27166 27168 28
21735 27166 27169 28
21736 27166 27170 28
21737 27171 27172 28
21738 27171 27173 28
21739 27171 27174 28
21740 27171 27175 28
21741 27176 27177 28
21742 27176 27178 28
21743 27176 27179 28
21744 27176 27180 28
21745 27181 27182 28
21746 27181 27183 28
21747 27181 27184 28
21748 27181 27185 28
21749 27186 27187 28
21750 27186 27188 28
21751 27186 27189 28
21752 27186 27190 28
21753 27191 27192 28
21754 27191 27193 28
21755 27191 27194 28
21756 27191 27195 28
21757 27196 27197 28
21758 27196 27198 28
21759 27196 27199 28
21760 27196 27200 28
21761 27201 27202 28
21762 27201 27203 28
21763 27201 27204 28
21764 27201 27205 28
21765 27206 27207 28
21766 27206 27208 28
21767 27206 27209 28
21768 27206 27210 28
21769 27211 27212 28
21770 27211 27213 28
21771 27211 27214 28
21772 27211 27215 28
21773 27216 27217 28
21774 27216 27218 28
21775 27216 27219 28
21776 27216 27220 28
21777 27221 27222 28
21778 27221 27223 28
21779 27221 27224 28
21780 27221 27225 28
21781 27226 27227 28
21782 27226 27228 28
21783 27226 27229 28
21784 27226 27230 28
21785 27231 27232 28
21786 27231 27233 28
21787 27231 27234 28
21788 27231 27235 28
21789 27236 27237 28
21790 27236 27238 28
21791 27236 27239 28
21792 27236 27240 28
21793 27241 27242 28
21794 27241 27243 28
21795 27241 27244 28
21796 27241 27245 28
21797 27246 27247 28
21798 27246 27248 28
21799 27246 27249 28
21800 27246 27250 28
21801 27251 27252 28
21802 27251 27253 28
21803 27251 27254 28
21804 27251 27255 28
21805 27256 27257 28
21806 27256 27258 28
21807 27256 27259 28
21808 27256 27260 28
21809 27261 27262 28
21810 27261 27263 28
21811 27261 27264 28
21812 27261 27265 28
21813 27266 27267 28
21814 27266 27268 28
21815 27266 27269 28
21816 27266 27270 28
21817 27271 27272 28
21818 27271 27273 28
21819 27271 27274 28
21820 27271 27275 28
21821 27276 27277 28
21822 27276 27278 28
21823 27276 27279 28
21824 27276 27280 28
21825 27281 27282 28
21826 27281 27283 28
21827 27281 27284 28
21828 27281 27285 28
21829 27286 27287 28
21830 27286 27288 28
21831 27286 27289 28
21832 27286 27290 28
21833 27291 27292 28
21834 27291 27293 28
21835 27291 27294 28
21836 27291 27295 28
21837 27296 27297 28
21838 27296 27298 28
21839 27296 27299 28
21840 27296 27300 28
21841 27301 27302 28
21842 27301 27303 28
21843 27301 27304 28
21844 27301 27305 28
21845 27306 27307 28
21846 27306 27308 28
21847 27306 27309 28
21848 27306 27310 28
21849 27311 27312 28
21850 27311 27313 28
21851 27311 27314 28
21852 27311 27315 28
21853 27316 27317 28
21854 27316 27318 28
21855 27316 27319 28
21856 27316 27320 28
21857 27321 27322 28
21858 27321 27323 28
21859 27321 27324 28
21860 27321 27325 28
21861 27326 27327 28
21862 27326 27328 28
21863 27326 27329 28
21864 27326 27330 28
21865 27331 27332 28
21866 27331 27333 28
21867 27331 27334 28
21868 27331 27335 28
21869 27336 27337 28
21870 27336 27338 28
21871 27336 27339 28
21872 27336 27340 28
21873 27341 27342 28
21874 27341 27343 28
21875 27341 27344 28
21876 27341 27345 28
21877 27346 27347 28
21878 27346 27348 28
21879 27346 27349 28
21880 27346 27350 28
21881 27351 27352 28
21882 27351 27353 28
21883 27351 27354 28
21884 27351 27355 28
21885 27356 27357 28
21886 27356 27358 28
21887 27356 27359 28
21888 27356 27360 28
21889 27361 27362 28
21890 27361 27363 28
21891 27361 27364 28
21892 27361 27365 28
21893 27366 27367 28
21894 27366 27368 28
21895 27366 27369 28
21896 27366 27370 28
21897 27371 27372 28
21898 27371 27373 28
21899 27371 27374 28
21900 27371 27375 28
21901 27376 27377 28
21902 27376 27378 28
21903 27376 27379 28
21904 27376 27380 28
21905 27381 27382 28
21906 27381 27383 28
21907 27381 27384 28
21908 27381 27385 28
21909 27386 27387 28
21910 27386 27388 28
21911 27386 27389 28
21912 27386 27390 28
21913 27391 27392 28
21914 27391 27393 28
21915 27391 27394 28
21916 27391 27395 28
21917 27396 27397 28
21918 27396 27398 28
21919 27396 27399 28
21920 27396 27400 28
21921 27401 27402 28
21922 27401 27403 28
21923 27401 27404 28
21924 27401 27405 28
21925 27406 27407 28
21926 27406 27408 28
21927 27406 27409 28
21928 27406 27410 28
21929 27411 27412 28
21930 27411 27413 28
21931 27411 27414 28
21932 27411 27415 28
21933 27416 27417 28
21934 27416 27418 28
21935 27416 27419 28
21936 27416 27420 28
21937 27421 27422 28
21938 27421 27423 28
21939 27421 27424 28
21940 27421 27425 28
21941 27426 27427 28
21942 27426 27428 28
21943 27426 27429 28
21944 27426 27430 28
21945 27431 27432 28
21946 27431 27433 28
21947 27431 27434 28
21948 27431 27435 28
21949 27436 27437 28
21950 27436 27438 28
21951 27436 27439 28
21952 27436 27440 28
21953 27441 27442 28
21954 27441 27443 28
21955 27441 27444 28
21956 27441 27445 28
21957 27446 27447 28
21958 27446 27448 28
21959 27446 27449 28
21960 27446 27450 28
21961 27451 27452 28
21962 27451 27453 28
21963 27451 27454 28
21964 27451 27455 28
21965 27456 27457 28
21966 27456 27458 28
21967 27456 27459 28
21968 27456 27460 28
21969 27461 27462 28
21970 27461 27463 28
21971 27461 27464 28
21972 27461 27465 28
21973 27466 27467 28
21974 27466 27468 28
21975 27466 27469 28
21976 27466 27470 28
21977 27471 27472 28
21978 27471 27473 28
21979 27471 27474 28
21980 27471 27475 28
21981 27476 27477 28
21982 27476 27478 28
21983 27476 27479 28
21984 27476 27480 28
21985 27481 27482 28
21986 27481 27483 28
21987 27481 27484 28
21988 27481 27485 28
21989 27486 27487 28
21990 27486 27488 28
21991 27486 27489 28
21992 27486 27490 28
21993 27491 27492 28
21994 27491 27493 28
21995 27491 27494 28
21996 27491 27495 28
21997 27496 27497 28
21998 27496 27498 28
21999 27496 27499 28
22000 27496 27500 28
22001 27501 27502 28
22002 27501 27503 28
22003 27501 27504 28
22004 27501 27505 28
22005 27506 27507 28
22006 27506 27508 28
22007 27506 27509 28
22008 27506 27510 28
22009 27511 27512 28
22010 27511 27513 28
22011 27511 27514 28
22012 27511 27515 28
22013 27516 27517 28
22014 27516 27518 28
22015 27516 27519 28
22016 27516 27520 28
22017 27521 27522 28
22018 27521 27523 28
22019 27521 27524 28
22020 27521 27525 28
22021 27526 27527 28
22022 27526 27528 28
22023 27526 27529 28
22024 27526 27530 28
22025 27531 27532 28
22026 27531 27533 28
22027 27531 27534 28
22028 27531 27535 28
22029 27536 27537 28
22030 27536 27538 28
22031 27536 27539 28
22032 27536 27540 28
22033 27541 27542 28
22034 27541 27543 28
22035 27541 27544 28
22036 27541 27545 28
22037 27546 27547 28
22038 27546 27548 28
22039 27546 27549 28
22040 27546 27550 28
22041 27551 27552 28
22042 27551 27553 28
22043 27551 27554 28
22044 27551 27555 28
22045 27556 27557 28
22046 27556 27558 28
22047 27556 27559 28
22048 27556 27560 28
22049 27561 27562 28
22050 27561 27563 28
22051 27561 27564 28
22052 27561 27565 28
22053 27566 27567 28
22054 27566 27568 28
22055 27566 27569 28
22056 27566 27570 28
22057 27571 27572 28
22058 27571 27573 28
22059 27571 27574 28
22060 27571 27575 28
22061 27576 27577 28
22062 27576 27578 28
22063 27576 27579 28
22064 27576 27580 28
22065 27581 27582 28
22066 27581 27583 28
22067 27581 27584 28
22068 27581 27585 28
22069 27586 27587 28
22070 27586 27588 28
22071 27586 27589 28
22072 27586 27590 28
22073 27591 27592 28
22074 27591 27593 28
22075 27591 27594 28
22076 27591 27595 28
22077 27596 27597 28
22078 27596 27598 28
22079 27596 27599 28
22080 27596 27600 28
22081 27601 27602 28
22082 27601 27603 28
22083 27601 27604 28
22084 27601 27605 28
22085 27606 27607 28
22086 27606 27608 28
22087 27606 27609 28
22088 27606 27610 28
22089 27611 27612 28
22090 27611 27613 28
22091 27611 27614 28
22092 27611 27615 28
22093 27616 27617 28
22094 27616 27618 28
22095 27616 27619 28
22096 27616 27620 28
22097 27621 27622 28
22098 27621 27623 28
22099 27621 27624 28
22100 27621 27625 28
22101 27626 27627 28
22102 27626 27628 28
22103 27626 27629 28
22104 27626 27630 28
22105 27631 27632 28
22106 27631 27633 28
22107 27631 27634 28
22108 27631 27635 28
22109 27636 27637 28
22110 27636 27638 28
22111 27636 27639 28
22112 27636 27640 28
22113 27641 27642 28
22114 27641 27643 28
22115 27641 27644 28
22116 27641 27645 28
22117 27646 27647 28
22118 27646 27648 28
22119 27646 27649 28
22120 27646 27650 28
22121 27651 27652 28
22122 27651 27653 28
22123 27651 27654 28
22124 27651 27655 28
22125 27656 27657 28
22126 27656 27658 28
22127 27656 27659 28
22128 27656 27660 28
22129 27661 27662 28
22130 27661 27663 28
22131 27661 27664 28
22132 27661 27665 28
22133 27666 27667 28
22134 27666 27668 28
22135 27666 27669 28
22136 27666 27670 28
22137 27671 27672 28
22138 27671 27673 28
22139 27671 27674 28
22140 27671 27675 28
22141 27676 27677 28
22142 27676 27678 28
22143 27676 27679 28
22144 27676 27680 28
22145 27681 27682 28
22146 27681 27683 28
22147 27681 27684 28
22148 27681 27685 28
22149 27686 27687 28
22150 27686 27688 28
22151 27686 27689 28
22152 27686 27690 28
22153 27691 27692 28
22154 27691 27693 28
22155 27691 27694 28
22156 27691 27695 28
22157 27696 27697 28
22158 27696 27698 28
22159 27696 27699 28
22160 27696 27700 28
22161 27701 27702 28
22162 27701 27703 28
22163 27701 27704 28
22164 27701 27705 28
22165 27706 27707 28
22166 27706 27708 28
22167 27706 27709 28
22168 27706 27710 28
22169 27711 27712 28
22170 27711 27713 28
22171 27711 27714 28
22172 27711 27715 28
22173 27716 27717 28
22174 27716 27718 28
22175 27716 27719 28
22176 27716 27720 28
22177 27721 27722 28
22178 27721 27723 28
22179 27721 27724 28
22180 27721 27725 28
22181 27726 27727 28
22182 27726 27728 28
22183 27726 27729 28
22184 27726 27730 28
22185 27731 27732 28
22186 27731 27733 28
22187 27731 27734 28
22188 27731 27735 28
22189 27736 27737 28
22190 27736 27738 28
22191 27736 27739 28
22192 27736 27740 28
22193 27741 27742 28
22194 27741 27743 28
22195 27741 27744 28
22196 27741 27745 28
22197 27746 27747 28
22198 27746 27748 28
22199 27746 27749 28
22200 27746 27750 28
22201 27751 27752 28
22202 27751 27753 28
22203 27751 27754 28
22204 27751 27755 28
22205 27756 27757 28
22206 27756 27758 28
22207 27756 27759 28
22208 27756 27760 28
22209 27761 27762 28
22210 27761 27763 28
22211 27761 27764 28
22212 27761 27765 28
22213 27766 27767 28
22214 27766 27768 28
22215 27766 27769 28
22216 27766 27770 28
22217 27771 27772 28
22218 27771 27773 28
22219 27771 27774 28
22220 27771 27775 28
22221 27776 27777 28
22222 27776 27778 28
22223 27776 27779 28
22224 27776 27780 28
22225 27781 27782 28
22226 27781 27783 28
22227 27781 27784 28
22228 27781 27785 28
22229 27786 27787 28
22230 27786 27788 28
22231 27786 27789 28
22232 27786 27790 28
22233 27791 27792 28
22234 27791 27793 28
22235 27791 27794 28
22236 27791 27795 28
22237 27796 27797 28
22238 27796 27798 28
22239 27796 27799 28
22240 27796 27800 28
22241 27801 27802 28
22242 27801 27803 28
22243 27801 27804 28
22244 27801 27805 28
22245 27806 27807 28
22246 27806 27808 28
22247 27806 27809 28
22248 27806 27810 28
22249 27811 27812 28
22250 27811 27813 28
22251 27811 27814 28
22252 27811 27815 28
22253 27816 27817 28
22254 27816 27818 28
22255 27816 27819 28
22256 27816 27820 28
22257 27821 27822 28
22258 27821 27823 28
22259 27821 27824 28
22260 27821 27825 28
22261 27826 27827 28
22262 27826 27828 28
22263 27826 27829 28
22264 27826 27830 28
22265 27831 27832 28
22266 27831 27833 28
22267 27831 27834 28
22268 27831 27835 28
22269 27836 27837 28
22270 27836 27838 28
22271 27836 27839 28
22272 27836 27840 28
22273 27841 27842 28
22274 27841 27843 28
22275 27841 27844 28
22276 27841 27845 28
22277 27846 27847 28
22278 27846 27848 28
22279 27846 27849 28
22280 27846 27850 28
22281 27851 27852 28
22282 27851 27853 28
22283 27851 27854 28
22284 27851 27855 28
22285 27856 27857 28
22286 27856 27858 28
22287 27856 27859 28
22288 27856 27860 28
22289 27861 27862 28
22290 27861 27863 28
22291 27861 27864 28
22292 27861 27865 28
22293 27866 27867 28
22294 27866 27868 28
22295 27866 27869 28
22296 27866 27870 28
22297 27871 27872 28
22298 27871 27873 28
22299 27871 27874 28
22300 27871 27875 28
22301 27876 27877 28
22302 27876 27878 28
22303 27876 27879 28
22304 27876 27880 28
22305 27881 27882 28
22306 27881 27883 28
22307 27881 27884 28
22308 27881 27885 28
22309 27886 27887 28
22310 27886 27888 28
22311 27886 27889 28
22312 27886 27890 28
22313 27891 27892 28
22314 27891 27893 28
22315 27891 27894 28
22316 27891 27895 28
22317 27896 27897 28
22318 27896 27898 28
22319 27896 27899 28
22320 27896 27900 28
22321 27901 27902 28
22322 27901 27903 28
22323 27901 27904 28
22324 27901 27905 28
22325 27906 27907 28
22326 27906 27908 28
22327 27906 27909 28
22328 27906 27910 28
22329 27911 27912 28
22330 27911 27913 28
22331 27911 27914 28
22332 27911 27915 28
22333 27916 27917 28
22334 27916 27918 28
22335 27916 27919 28
22336 27916 27920 28
22337 27921 27922 28
22338 27921 27923 28
22339 27921 27924 28
22340 27921 27925 28
22341 27926 27927 28
22342 27926 27928 28
22343 27926 27929 28
22344 27926 27930 28
22345 27931 27932 28
22346 27931 27933 28
22347 27931 27934 28
22348 27931 27935 28
22349 27936 27937 28
22350 27936 27938 28
22351 27936 27939 28
22352 27936 27940 28
22353 27941 27942 28
22354 27941 27943 28
22355 27941 27944 28
22356 27941 27945 28
22357 27946 27947 28
22358 27946 27948 28
22359 27946 27949 28
22360 27946 27950 28
22361 27951 27952 28
22362 27951 27953 28
22363 27951 27954 28
22364 27951 27955 28
22365 27956 27957 28
22366 27956 27958 28
22367 27956 27959 28
22368 27956 27960 28
22369 27961 27962 28
22370 27961 27963 28
22371 27961 27964 28
22372 27961 27965 28
22373 27966 27967 28
22374 27966 27968 28
22375 27966 27969 28
22376 27966 27970 28
22377 27971 27972 28
22378 27971 27973 28
22379 27971 27974 28
22380 27971 27975 28
22381 27976 27977 28
22382 27976 27978 28
22383 27976 27979 28
22384 27976 27980 28
22385 27981 27982 28
22386 27981 27983 28
22387 27981 27984 28
22388 27981 27985 28
22389 27986 27987 28
22390 27986 27988 28
22391 27986 27989 28
22392 27986 27990 28
22393 27991 27992 28
22394 27991 27993 28
22395 27991 27994 28
22396 27991 27995 28
22397 27996 27997 28
22398 27996 27998 28
22399 27996 27999 28
22400 27996 28000 28
22401 28001 28002 28
22402 28001 28003 28
22403 28001 28004 28
22404 28001 28005 28
22405 28006 28007 28
22406 28006 28008 28
22407 28006 28009 28
22408 28006 28010 28
22409 28011 28012 28
22410 28011 28013 28
22411 28011 28014 28
22412 28011 28015 28
22413 28016 28017 28
22414 28016 28018 28
22415 28016 28019 28
22416 28016 28020 28
22417 28021 28022 28
22418 28021 28023 28
22419 28021 28024 28
22420 28021 28025 28
22421 28026 28027 28
22422 28026 28028 28
22423 28026 28029 28
22424 28026 28030 28
22425 28031 28032 28
22426 28031 28033 28
22427 28031 28034 28
22428 28031 28035 28
22429 28036 28037 28
22430 28036 28038 28
22431 28036 28039 28
22432 28036 28040 28
22433 28041 28042 28
22434 28041 28043 28
22435 28041 28044 28
22436 28041 28045 28
22437 28046 28047 28
22438 28046 28048 28
22439 28046 28049 28
22440 28046 28050 28
22441 28051 28052 28
22442 28051 28053 28
22443 28051 28054 28
22444 28051 28055 28
22445 28056 28057 28
22446 28056 28058 28
22447 28056 28059 28
22448 28056 28060 28
22449 28061 28062 28
22450 28061 28063 28
22451 28061 28064 28
22452 28061 28065 28
22453 28066 28067 28
22454 28066 28068 28
22455 28066 28069 28
22456 28066 28070 28
22457 28071 28072 28
22458 28071 28073 28
22459 28071 28074 28
22460 28071 28075 28
22461 28076 28077 28
22462 28076 28078 28
22463 28076 28079 28
22464 28076 28080 28
22465 28081 28082 28
22466 28081 28083 28
22467 28081 28084 28
22468 28081 28085 28
22469 28086 28087 28
22470 28086 28088 28
22471 28086 28089 28
22472 28086 28090 28
22473 28091 28092 28
22474 28091 28093 28
22475 28091 28094 28
22476 28091 28095 28
22477 28096 28097 28
22478 28096 28098 28
22479 28096 28099 28
22480 28096 28100 28
22481 28101 28102 28
22482 28101 28103 28
22483 28101 28104 28
22484 28101 28105 28
22485 28106 28107 28
22486 28106 28108 28
22487 28106 28109 28
22488 28106 28110 28
22489 28111 28112 28
22490 28111 28113 28
22491 28111 28114 28
22492 28111 28115 28
22493 28116 28117 28
22494 28116 28118 28
22495 28116 28119 28
22496 28116 28120 28
22497 28121 28122 28
22498 28121 28123 28
22499 28121 28124 28
22500 28121 28125 28
22501 28126 28127 28
22502 28126 28128 28
22503 28126 28129 28
22504 28126 28130 28
22505 28131 28132 28
22506 28131 28133 28
22507 28131 28134 28
22508 28131 28135 28
22509 28136 28137 28
22510 28136 28138 28
22511 28136 28139 28
22512 28136 28140 28
22513 28141 28142 28
22514 28141 28143 28
22515 28141 28144 28
22516 28141 28145 28
22517 28146 28147 28
22518 28146 28148 28
22519 28146 28149 28
22520 28146 28150 28
22521 28151 28152 28
22522 28151 28153 28
22523 28151 28154 28
22524 28151 28155 28
22525 28156 28157 28
22526 28156 28158 28
22527 28156 28159 28
22528 28156 28160 28
22529 28161 28162 28
22530 28161 28163 28
22531 28161 28164 28
22532 28161 28165 28
22533 28166 28167 28
22534 28166 28168 28
22535 28166 28169 28
22536 28166 28170 28
22537 28171 28172 28
22538 28171 28173 28
22539 28171 28174 28
22540 28171 28175 28
22541 28176 28177 28
22542 28176 28178 28
22543 28176 28179 28
22544 28176 28180 28
22545 28181 28182 28
22546 28181 28183 28
22547 28181 28184 28
22548 28181 28185 28
22549 28186 28187 28
22550 28186 28188 28
22551 28186 28189 28
22552 28186 28190 28
22553 28191 28192 28
22554 28191 28193 28
22555 28191 28194 28
22556 28191 28195 28
22557 28196 28197 28
22558 28196 28198 28
22559 28196 28199 28
22560 28196 28200 28
22561 28201 28202 28
22562 28201 28203 28
22563 28201 28204 28
22564 28201 28205 28
22565 28206 28207 28
22566 28206 28208 28
22567 28206 28209 28
22568 28206 28210 28
22569 28211 28212 28
22570 28211 28213 28
22571 28211 28214 28
22572 28211 28215 28
22573 28216 28217 28
22574 28216 28218 28
22575 28216 28219 28
22576 28216 28220 28
22577 28221 28222 28
22578 28221 28223 28
22579 28221 28224 28
22580 28221 28225 28
22581 28226 28227 28
22582 28226 28228 28
22583 28226 28229 28
22584 28226 28230 28
22585 28231 28232 28
22586 28231 28233 28
22587 28231 28234 28
22588 28231 28235 28
22589 28236 28237 28
22590 28236 28238 28
22591 28236 28239 28
22592 28236 28240 28
22593 28241 28242 28
22594 28241 28243 28
22595 28241 28244 28
22596 28241 28245 28
22597 28246 28247 28
22598 28246 28248 28
22599 28246 28249 28
22600 28246 28250 28
22601 28251 28252 28
22602 28251 28253 28
22603 28251 28254 28
22604 28251 28255 28
22605 28256 28257 28
22606 28256 28258 28
22607 28256 28259 28
22608 28256 28260 28
22609 28261 28262 28
22610 28261 28263 28
22611 28261 28264 28
22612 28261 28265 28
22613 28266 28267 28
22614 28266 28268 28
22615 28266 28269 28
22616 28266 28270 28
22617 28271 28272 28
22618 28271 28273 28
22619 28271 28274 28
22620 28271 28275 28
22621 28276 28277 28
22622 28276 28278 28
22623 28276 28279 28
22624 28276 28280 28
22625 28281 28282 28
22626 28281 28283 28
22627 28281 28284 28
22628 28281 28285 28
22629 28286 28287 28
22630 28286 28288 28
22631 28286 28289 28
22632 28286 28290 28
22633 28291 28292 28
22634 28291 28293 28
22635 28291 28294 28
22636 28291 28295 28
22637 28296 28297 28
22638 28296 28298 28
22639 28296 28299 28
22640 28296 28300 28
22641 28301 28302 28
22642 28301 28303 28
22643 28301 28304 28
22644 28301 28305 28
22645 28306 28307 28
22646 28306 28308 28
22647 28306 28309 28
22648 28306 28310 28
22649 28311 28312 28
22650 28311 28313 28
22651 28311 28314 28
22652 28311 28315 28
22653 28316 28317 28
22654 28316 28318 28
22655 28316 28319 28
22656 28316 28320 28
22657 28321 28322 28
22658 28321 28323 28
22659 28321 28324 28
22660 28321 28325 28
22661 28326 28327 28
22662 28326 28328 28
22663 28326 28329 28
22664 28326 28330 28
22665 28331 28332 28
22666 28331 28333 28
22667 28331 28334 28
22668 28331 28335 28
22669 28336 28337 28
22670 28336 28338 28
22671 28336 28339 28
22672 28336 28340 28
22673 28341 28342 28
22674 28341 28343 28
22675 28341 28344 28
22676 28341 28345 28
22677 28346 28347 28
22678 28346 28348 28
22679 28346 28349 28
22680 28346 28350 28
22681 28351 28352 28
22682 28351 28353 28
22683 28351 28354 28
22684 28351 28355 28
22685 28356 28357 28
22686 28356 28358 28
22687 28356 28359 28
22688 28356 28360 28
22689 28361 28362 28
22690 28361 28363 28
22691 28361 28364 28
22692 28361 28365 28
22693 28366 28367 28
22694 28366 28368 28
22695 28366 28369 28
22696 28366 28370 28
22697 28371 28372 28
22698 28371 28373 28
22699 28371 28374 28
22700 28371 28375 28
22701 28376 28377 28
22702 28376 28378 28
22703 28376 28379 28
22704 28376 28380 28
22705 28381 28382 28
22706 28381 28383 28
22707 28381 28384 28
22708 28381 28385 28
22709 28386 28387 28
22710 28386 28388 28
22711 28386 28389 28
22712 28386 28390 28
22713 28391 28392 28
22714 28391 28393 28
22715 28391 28394 28
22716 28391 28395 28
22717 28396 28397 28
22718 28396 28398 28
22719 28396 28399 28
22720 28396 28400 28
22721 28401 28402 28
22722 28401 28403 28
22723 28401 28404 28
22724 28401 28405 28
22725 28406 28407 28
22726 28406 28408 28
22727 28406 28409 28
22728 28406 28410 28
22729 28411 28412 28
22730 28411 28413 28
22731 28411 28414 28
22732 28411 28415 28
22733 28416 28417 28
22734 28416 28418 28
22735 28416 28419 28
22736 28416 28420 28
22737 28421 28422 28
22738 28421 28423 28
22739 28421 28424 28
22740 28421 28425 28
22741 28426 28427 28
22742 28426 28428 28
22743 28426 28429 28
22744 28426 28430 28
22745 28431 28432 28
22746 28431 28433 28
22747 28431 28434 28
22748 28431 28435 28
22749 28436 28437 28
22750 28436 28438 28
22751 28436 28439 28
22752 28436 28440 28
22753 28441 28442 28
22754 28441 28443 28
22755 28441 28444 28
22756 28441 28445 28
22757 28446 28447 28
22758 28446 28448 28
22759 28446 28449 28
22760 28446 28450 28
22761 28451 28452 28
22762 28451 28453 28
22763 28451 28454 28
22764 28451 28455 28
22765 28456 28457 28
22766 28456 28458 28
22767 28456 28459 28
22768 28456 28460 28
22769 28461 28462 28
22770 28461 28463 28
22771 28461 28464 28
22772 28461 28465 28
22773 28466 28467 28
22774 28466 28468 28
22775 28466 28469 28
22776 28466 28470 28
22777 28471 28472 28
22778 28471 28473 28
22779 28471 28474 28
22780 28471 28475 28
22781 28476 28477 28
22782 28476 28478 28
22783 28476 28479 28
22784 28476 28480 28
22785 28481 28482 28
22786 28481 28483 28
22787 28481 28484 28
22788 28481 28485 28
22789 28486 28487 28
22790 28486 28488 28
22791 28486 28489 28
22792 28486 28490 28
22793 28491 28492 28
22794 28491 28493 28
22795 28491 28494 28
22796 28491 28495 28
22797 28496 28497 28
22798 28496 28498 28
22799 28496 28499 28
22800 28496 28500 28
22801 28501 28502 28
22802 28501 28503 28
22803 28501 28504 28
22804 28501 28505 28
22805 28506 28507 28
22806 28506 28508 28
22807 28506 28509 28
22808 28506 28510 28
22809 28511 28512 28
22810 28511 28513 28
22811 28511 28514 28
22812 28511 28515 28
22813 28516 28517 28
22814 28516 28518 28
22815 28516 28519 28
22816 28516 28520 28
22817 28521 28522 28
22818 28521 28523 28
22819 28521 28524 28
22820 28521 28525 28
22821 28526 28527 28
22822 28526 28528 28
22823 28526 28529 28
22824 28526 28530 28
22825 28531 28532 28
22826 28531 28533 28
22827 28531 28534 28
22828 28531 28535 28
22829 28536 28537 28
22830 28536 28538 28
22831 28536 28539 28
22832 28536 28540 28
22833 28541 28542 28
22834 28541 28543 28
22835 28541 28544 28
22836 28541 28545 28
22837 28546 28547 28
22838 28546 28548 28
22839 28546 28549 28
22840 28546 28550 28
22841 28551 28552 28
22842 28551 28553 28
22843 28551 28554 28
22844 28551 28555 28
22845 28556 28557 28
22846 28556 28558 28
22847 28556 28559 28
22848 28556 28560 28
22849 28561 28562 28
22850 28561 28563 28
22851 28561 28564 28
22852 28561 28565 28
22853 28566 28567 28
22854 28566 28568 28
22855 28566 28569 28
22856 28566 28570 28
22857 28571 28572 28
22858 28571 28573 28
22859 28571 28574 28
22860 28571 28575 28
22861 28576 28577 28
22862 28576 28578 28
22863 28576 28579 28
22864 28576 28580 28
22865 28581 28582 28
22866 28581 28583 28
22867 28581 28584 28
22868 28581 28585 28
22869 28586 28587 28
22870 28586 28588 28
22871 28586 28589 28
22872 28586 28590 28
22873 28591 28592 28
22874 28591 28593 28
22875 28591 28594 28
22876 28591 28595 28
22877 28596 28597 28
22878 28596 28598 28
22879 28596 28599 28
22880 28596 28600 28
22881 28601 28602 28
22882 28601 28603 28
22883 28601 28604 28
22884 28601 28605 28
22885 28606 28607 28
22886 28606 28608 28
22887 28606 28609 28
22888 28606 28610 28
22889 28611 28612 28
22890 28611 28613 28
22891 28611 28614 28
22892 28611 28615 28
22893 28616 28617 28
22894 28616 28618 28
22895 28616 28619 28
22896 28616 28620 28
22897 28621 28622 28
22898 28621 28623 28
22899 28621 28624 28
22900 28621 28625 28
22901 28626 28627 28
22902 28626 28628 28
22903 28626 28629 28
22904 28626 28630 28
22905 28631 28632 28
22906 28631 28633 28
22907 28631 28634 28
22908 28631 28635 28
22909 28636 28637 28
22910 28636 28638 28
22911 28636 28639 28
22912 28636 28640 28
22913 28641 28642 28
22914 28641 28643 28
22915 28641 28644 28
22916 28641 28645 28
22917 28646 28647 28
22918 28646 28648 28
22919 28646 28649 28
22920 28646 28650 28
22921 28651 28652 28
22922 28651 28653 28
22923 28651 28654 28
22924 28651 28655 28
22925 28656 28657 28
22926 28656 28658 28
22927 28656 28659 28
22928 28656 28660 28
22929 28661 28662 28
22930 28661 28663 28
22931 28661 28664 28
22932 28661 28665 28
22933 28666 28667 28
22934 28666 28668 28
22935 28666 28669 28
22936 28666 28670 28
22937 28671 28672 28
22938 28671 28673 28
22939 28671 28674 28
22940 28671 28675 28
22941 28676 28677 28
22942 28676 28678 28
22943 28676 28679 28
22944 28676 28680 28
22945 28681 28682 28
22946 28681 28683 28
22947 28681 28684 28
22948 28681 28685 28
22949 28686 28687 28
22950 28686 28688 28
22951 28686 28689 28
22952 28686 28690 28
22953 28691 28692 28
22954 28691 28693 28
22955 28691 28694 28
22956 28691 28695 28
22957 28696 28697 28
22958 28696 28698 28
22959 28696 28699 28
22960 28696 28700 28
22961 28701 28702 28
22962 28701 28703 28
22963 28701 28704 28
22964 28701 28705 28
22965 28706 28707 28
22966 28706 28708 28
22967 28706 28709 28
22968 28706 28710 28
22969 28711 28712 28
22970 28711 28713 28
22971 28711 28714 28
22972 28711 28715 28
22973 28716 28717 28
22974 28716 28718 28
22975 28716 28719 28
22976 28716 28720 28
22977 28721 28722 28
22978 28721 28723 28
22979 28721 28724 28
22980 28721 28725 28
22981 28726 28727 28
22982 28726 28728 28
22983 28726 28729 28
22984 28726 28730 28
22985 28731 28732 28
22986 28731 28733 28
22987 28731 28734 28
22988 28731 28735 28
22989 28736 28737 28
22990 28736 28738 28
22991 28736 28739 28
22992 28736 28740 28
22993 28741 28742 28
22994 28741 28743 28
22995 28741 28744 28
22996 28741 28745 28
22997 28746 28747 28
22998 28746 28748 28
22999 28746 28749 28
23000 28746 28750 28
23001 28751 28752 28
23002 28751 28753 28
23003 28751 28754 28
23004 28751 28755 28
23005 28756 28757 28
23006 28756 28758 28
23007 28756 28759 28
23008 28756 28760 28
23009 28761 28762 28
23010 28761 28763 28
23011 28761 28764 28
23012 28761 28765 28
23013 28766 28767 28
23014 28766 28768 28
23015 28766 28769 28
23016 28766 28770 28
23017 28771 28772 28
23018 28771 28773 28
23019 28771 28774 28
23020 28771 28775 28
23021 28776 28777 28
23022 28776 28778 28
23023 28776 28779 28
23024 28776 28780 28
23025 28781 28782 28
23026 28781 28783 28
23027 28781 28784 28
23028 28781 28785 28
23029 28786 28787 28
23030 28786 28788 28
23031 28786 28789 28
23032 28786 28790 28
23033 28791 28792 28
23034 28791 28793 28
23035 28791 28794 28
23036 28791 28795 28
23037 28796 28797 28
23038 28796 28798 28
23039 28796 28799 28
23040 28796 28800 28
23041 28801 28802 28
23042 28801 28803 28
23043 28801 28804 28
23044 28801 28805 28
23045 28806 28807 28
23046 28806 28808 28
23047 28806 28809 28
23048 28806 28810 28
23049 28811 28812 28
23050 28811 28813 28
23051 28811 28814 28
23052 28811 28815 28
23053 28816 28817 28
23054 28816 28818 28
23055 28816 28819 28
23056 28816 28820 28
23057 28821 28822 28
23058 28821 28823 28
23059 28821 28824 28
23060 28821 28825 28
23061 28826 28827 28
23062 28826 28828 28
23063 28826 28829 28
23064 28826 28830 28
23065 28831 28832 28
23066 28831 28833 28
23067 28831 28834 28
23068 28831 28835 28
23069 28836 28837 28
23070 28836 28838 28
23071 28836 28839 28
23072 28836 28840 28
23073 28841 28842 28
23074 28841 28843 28
23075 28841 28844 28
23076 28841 28845 28
23077 28846 28847 28
23078 28846 28848 28
23079 28846 28849 28
23080 28846 28850 28
23081 28851 28852 28
23082 28851 28853 28
23083 28851 28854 28
23084 28851 28855 28
23085 28856 28857 28
23086 28856 28858 28
23087 28856 28859 28
23088 28856 28860 28
23089 28861 28862 28
23090 28861 28863 28
23091 28861 28864 28
23092 28861 28865 28
23093 28866 28867 28
23094 28866 28868 28
23095 28866 28869 28
23096 28866 28870 28
23097 28871 28872 28
23098 28871 28873 28
23099 28871 28874 28
23100 28871 28875 28
23101 28876 28877 28
23102 28876 28878 28
23103 28876 28879 28
23104 28876 28880 28
23105 28881 28882 28
23106 28881 28883 28
23107 28881 28884 28
23108 28881 28885 28
23109 28886 28887 28
23110 28886 28888 28
23111 28886 28889 28
23112 28886 28890 28
23113 28891 28892 28
23114 28891 28893 28
23115 28891 28894 28
23116 28891 28895 28
23117 28896 28897 28
23118 28896 28898 28
23119 28896 28899 28
23120 28896 28900 28
23121 28901 28902 28
23122 28901 28903 28
23123 28901 28904 28
23124 28901 28905 28
23125 28906 28907 28
23126 28906 28908 28
23127 28906 28909 28
23128 28906 28910 28
23129 28911 28912 28
23130 28911 28913 28
23131 28911 28914 28
23132 28911 28915 28
23133 28916 28917 28
23134 28916 28918 28
23135 28916 28919 28
23136 28916 28920 28
23137 28921 28922 28
23138 28921 28923 28
23139 28921 28924 28
23140 28921 28925 28
23141 28926 28927 28
23142 28926 28928 28
23143 28926 28929 28
23144 28926 28930 28
23145 28931 28932 28
23146 28931 28933 28
23147 28931 28934 28
23148 28931 28935 28
23149 28936 28937 28
23150 28936 28938 28
23151 28936 28939 28
23152 28936 28940 28
23153 28941 28942 28
23154 28941 28943 28
23155 28941 28944 28
23156 28941 28945 28
23157 28946 28947 28
23158 28946 28948 28
23159 28946 28949 28
23160 28946 28950 28
23161 28951 28952 28
23162 28951 28953 28
23163 28951 28954 28
23164 28951 28955 28
23165 28956 28957 28
23166 28956 28958 28
23167 28956 28959 28
23168 28956 28960 28
23169 28961 28962 28
23170 28961 28963 28
23171 28961 28964 28
23172 28961 28965 28
23173 28966 28967 28
23174 28966 28968 28
23175 28966 28969 28
23176 28966 28970 28
23177 28971 28972 28
23178 28971 28973 28
23179 28971 28974 28
23180 28971 28975 28
23181 28976 28977 28
23182 28976 28978 28
23183 28976 28979 28
23184 28976 28980 28
23185 28981 28982 28
23186 28981 28983 28
23187 28981 28984 28
23188 28981 28985 28
23189 28986 28987 28
23190 28986 28988 28
23191 28986 28989 28
23192 28986 28990 28
23193 28991 28992 28
23194 28991 28993 28
23195 28991 28994 28
23196 28991 28995 28
23197 28996 28997 28
23198 28996 28998 28
23199 28996 28999 28
23200 28996 29000 28
23201 29001 29002 28
23202 29001 29003 28
23203 29001 29004 28
23204 29001 29005 28
23205 29006 29007 28
23206 29006 29008 28
23207 29006 29009 28
23208 29006 29010 28
23209 29011 29012 28
23210 29011 29013 28
23211 29011 29014 28
23212 29011 29015 28
23213 29016 29017 28
23214 29016 29018 28
23215 29016 29019 28
23216 29016 29020 28
23217 29021 29022 28
23218 29021 29023 28
23219 29021 29024 28
23220 29021 29025 28
23221 29026 29027 28
23222 29026 29028 28
23223 29026 29029 28
23224 29026 29030 28
23225 29031 29032 28
23226 29031 29033 28
23227 29031 29034 28
23228 29031 29035 28
23229 29036 29037 28
23230 29036 29038 28
23231 29036 29039 28
23232 29036 29040 28
23233 29041 29042 28
23234 29041 29043 28
23235 29041 29044 28
23236 29041 29045 28
23237 29046 29047 28
23238 29046 29048 28
23239 29046 29049 28
23240 29046 29050 28
23241 29051 29052 28
23242 29051 29053 28
23243 29051 29054 28
23244 29051 29055 28
23245 29056 29057 28
23246 29056 29058 28
23247 29056 29059 28
23248 29056 29060 28
23249 29061 29062 28
23250 29061 29063 28
23251 29061 29064 28
23252 29061 29065 28
23253 29066 29067 28
23254 29066 29068 28
23255 29066 29069 28
23256 29066 29070 28
23257 29071 29072 28
23258 29071 29073 28
23259 29071 29074 28
23260 29071 29075 28
23261 29076 29077 28
23262 29076 29078 28
23263 29076 29079 28
23264 29076 29080 28
23265 29081 29082 28
23266 29081 29083 28
23267 29081 29084 28
23268 29081 29085 28
23269 29086 29087 28
23270 29086 29088 28
23271 29086 29089 28
23272 29086 29090 28
23273 29091 29092 28
23274 29091 29093 28
23275 29091 29094 28
23276 29091 29095 28
23277 29096 29097 28
23278 29096 29098 28
23279 29096 29099 28
23280 29096 29100 28
23281 29101 29102 28
23282 29101 29103 28
23283 29101 29104 28
23284 29101 29105 28
23285 29106 29107 28
23286 29106 29108 28
23287 29106 29109 28
23288 29106 29110 28
23289 29111 29112 28
23290 29111 29113 28
23291 29111 29114 28
23292 29111 29115 28
23293 29116 29117 28
23294 29116 29118 28
23295 29116 29119 28
23296 29116 29120 28
23297 29121 29122 28
23298 29121 29123 28
23299 29121 29124 28
23300 29121 29125 28
23301 29126 29127 28
23302 29126 29128 28
23303 29126 29129 28
23304 29126 29130 28
23305 29131 29132 28
23306 29131 29133 28
23307 29131 29134 28
23308 29131 29135 28
23309 29136 29137 28
23310 29136 29138 28
23311 29136 29139 28
23312 29136 29140 28
23313 29141 29142 28
23314 29141 29143 28
23315 29141 29144 28
23316 29141 29145 28
23317 29146 29147 28
23318 29146 29148 28
23319 29146 29149 28
23320 29146 29150 28
23321 29151 29152 28
23322 29151 29153 28
23323 29151 29154 28
23324 29151 29155 28
23325 29156 29157 28
23326 29156 29158 28
23327 29156 29159 28
23328 29156 29160 28
23329 29161 29162 28
23330 29161 29163 28
23331 29161 29164 28
23332 29161 29165 28
23333 29166 29167 28
23334 29166 29168 28
23335 29166 29169 28
23336 29166 29170 28
23337 29171 29172 28
23338 29171 29173 28
23339 29171 29174 28
23340 29171 29175 28
23341 29176 29177 28
23342 29176 29178 28
23343 29176 29179 28
23344 29176 29180 28
23345 29181 29182 28
23346 29181 29183 28
23347 29181 29184 28
23348 29181 29185 28
23349 29186 29187 28
23350 29186 29188 28
23351 29186 29189 28
23352 29186 29190 28
23353 29191 29192 28
23354 29191 29193 28
23355 29191 29194 28
23356 29191 29195 28
23357 29196 29197 28
23358 29196 29198 28
23359 29196 29199 28
23360 29196 29200 28
23361 29201 29202 28
23362 29201 29203 28
23363 29201 29204 28
23364 29201 29205 28
23365 29206 29207 28
23366 29206 29208 28
23367 29206 29209 28
23368 29206 29210 28
23369 29211 29212 28
23370 29211 29213 28
23371 29211 29214 28
23372 29211 29215 28
23373 29216 29217 28
23374 29216 29218 28
23375 29216 29219 28
23376 29216 29220 28
23377 29221 29222 28
23378 29221 29223 28
23379 29221 29224 28
23380 29221 29225 28
23381 29226 29227 28
23382 29226 29228 28
23383 29226 29229 28
23384 29226 29230 28
23385 29231 29232 28
23386 29231 29233 28
23387 29231 29234 28
23388 29231 29235 28
23389 29236 29237 28
23390 29236 29238 28
23391 29236 29239 28
23392 29236 29240 28
23393 29241 29242 28
23394 29241 29243 28
23395 29241 29244 28
23396 29241 29245 28
23397 29246 29247 28
23398 29246 29248 28
23399 29246 29249 28
23400 29246 29250 28
23401 29251 29252 28
23402 29251 29253 28
23403 29251 29254 28
23404 29251 29255 28
23405 29256 29257 28
23406 29256 29258 28
23407 29256 29259 28
23408 29256 29260 28
23409 29261 29262 28
23410 29261 29263 28
23411 29261 29264 28
23412 29261 29265 28
23413 29266 29267 28
23414 29266 29268 28
23415 29266 29269 28
23416 29266 29270 28
23417 29271 29272 28
23418 29271 29273 28
23419 29271 29274 28
23420 29271 29275 28
23421 29276 29277 28
23422 29276 29278 28
23423 29276 29279 28
23424 29276 29280 28
23425 29281 29282 28
23426 29281 29283 28
23427 29281 29284 28
23428 29281 29285 28
23429 29286 29287 28
23430 29286 29288 28
23431 29286 29289 28
23432 29286 29290 28
23433 29291 29292 28
23434 29291 29293 28
23435 29291 29294 28
23436 29291 29295 28
23437 29296 29297 28
23438 29296 29298 28
23439 29296 29299 28
23440 29296 29300 28
23441 29301 29302 28
23442 29301 29303 28
23443 29301 29304 28
23444 29301 29305 28
23445 29306 29307 28
23446 29306 29308 28
23447 29306 29309 28
23448 29306 29310 28
23449 29311 29312 28
23450 29311 29313 28
23451 29311 29314 28
23452 29311 29315 28
23453 29316 29317 28
23454 29316 29318 28
23455 29316 29319 28
23456 29316 29320 28
23457 29321 29322 28
23458 29321 29323 28
23459 29321 29324 28
23460 29321 29325 28
23461 29326 29327 28
23462 29326 29328 28
23463 29326 29329 28
23464 29326 29330 28
23465 29331 29332 28
23466 29331 29333 28
23467 29331 29334 28
23468 29331 29335 28
23469 29336 29337 28
23470 29336 29338 28
23471 29336 29339 28
23472 29336 29340 28
23473 29341 29342 28
23474 29341 29343 28
23475 29341 29344 28
23476 29341 29345 28
23477 29346 29347 28
23478 29346 29348 28
23479 29346 29349 28
23480 29346 29350 28
23481 29351 29352 28
23482 29351 29353 28
23483 29351 29354 28
23484 29351 29355 28
23485 29356 29357 28
23486 29356 29358 28
23487 29356 29359 28
23488 29356 29360 28
23489 29361 29362 28
23490 29361 29363 28
23491 29361 29364 28
23492 29361 29365 28
23493 29366 29367 28
23494 29366 29368 28
23495 29366 29369 28
23496 29366 29370 28
23497 29371 29372 28
23498 29371 29373 28
23499 29371 29374 28
23500 29371 29375 28
23501 29376 29377 28
23502 29376 29378 28
23503 29376 29379 28
23504 29376 29380 28
23505 29381 29382 28
23506 29381 29383 28
23507 29381 29384 28
23508 29381 29385 28
23509 29386 29387 28
23510 29386 29388 28
23511 29386 29389 28
23512 29386 29390 28
23513 29391 29392 28
23514 29391 29393 28
23515 29391 29394 28
23516 29391 29395 28
23517 29396 29397 28
23518 29396 29398 28
23519 29396 29399 28
23520 29396 29400 28
23521 29401 29402 28
23522 29401 29403 28
23523 29401 29404 28
23524 29401 29405 28
23525 29406 29407 28
23526 29406 29408 28
23527 29406 29409 28
23528 29406 29410 28
23529 29411 29412 28
23530 29411 29413 28
23531 29411 29414 28
23532 29411 29415 28
23533 29416 29417 28
23534 29416 29418 28
23535 29416 29419 28
23536 29416 29420 28
23537 29421 29422 28
23538 29421 29423 28
23539 29421 29424 28
23540 29421 29425 28
23541 29426 29427 28
23542 29426 29428 28
23543 29426 29429 28
23544 29426 29430 28
23545 29431 29432 28
23546 29431 29433 28
23547 29431 29434 28
23548 29431 29435 28
23549 29436 29437 28
23550 29436 29438 28
23551 29436 29439 28
23552 29436 29440 28
23553 29441 29442 28
23554 29441 29443 28
23555 29441 29444 28
23556 29441 29445 28
23557 29446 29447 28
23558 29446 29448 28
23559 29446 29449 28
23560 29446 29450 28
23561 29451 29452 28
23562 29451 29453 28
23563 29451 29454 28
23564 29451 29455 28
23565 29456 29457 28
23566 29456 29458 28
23567 29456 29459 28
23568 29456 29460 28
23569 29461 29462 28
23570 29461 29463 28
23571 29461 29464 28
23572 29461 29465 28
23573 29466 29467 28
23574 29466 29468 28
23575 29466 29469 28
23576 29466 29470 28
23577 29471 29472 28
23578 29471 29473 28
23579 29471 29474 28
23580 29471 29475 28
23581 29476 29477 28
23582 29476 29478 28
23583 29476 29479 28
23584 29476 29480 28
23585 29481 29482 28
23586 29481 29483 28
23587 29481 29484 28
23588 29481 29485 28
23589 29486 29487 28
23590 29486 29488 28
23591 29486 29489 28
23592 29486 29490 28
23593 29491 29492 28
23594 29491 29493 28
23595 29491 29494 28
23596 29491 29495 28
23597 29496 29497 28
23598 29496 29498 28
23599 29496 29499 28
23600 29496 29500 28
23601 29501 29502 28
23602 29501 29503 28
23603 29501 29504 28
23604 29501 29505 28
23605 29506 29507 28
23606 29506 29508 28
23607 29506 29509 28
23608 29506 29510 28
23609 29511 29512 28
23610 29511 29513 28
23611 29511 29514 28
23612 29511 29515 28
23613 29516 29517 28
23614 29516 29518 28
23615 29516 29519 28
23616 29516 29520 28
23617 29521 29522 28
23618 29521 29523 28
23619 29521 29524 28
23620 29521 29525 28
23621 29526 29527 28
23622 29526 29528 28
23623 29526 29529 28
23624 29526 29530 28
23625 29531 29532 28
23626 29531 29533 28
23627 29531 29534 28
23628 29531 29535 28
23629 29536 29537 28
23630 29536 29538 28
23631 29536 29539 28
23632 29536 29540 28
23633 29541 29542 28
23634 29541 29543 28
23635 29541 29544 28
23636 29541 29545 28
23637 29546 29547 28
23638 29546 29548 28
23639 29546 29549 28
23640 29546 29550 28
23641 29551 29552 28
23642 29551 29553 28
23643 29551 29554 28
23644 29551 29555 28
23645 29556 29557 28
23646 29556 29558 28
23647 29556 29559 28
23648 29556 29560 28
23649 29561 29562 28
23650 29561 29563 28
23651 29561 29564 28
23652 29561 29565 28
23653 29566 29567 28
23654 29566 29568 28
23655 29566 29569 28
23656 29566 29570 28
23657 29571 29572 28
23658 29571 29573 28
23659 29571 29574 28
23660 29571 29575 28
23661 29576 29577 28
23662 29576 29578 28
23663 29576 29579 28
23664 29576 29580 28
23665 29581 29582 28
23666 29581 29583 28
23667 29581 29584 28
23668 29581 29585 28
23669 29586 29587 28
23670 29586 29588 28
23671 29586 29589 28
23672 29586 29590 28
23673 29591 29592 28
23674 29591 29593 28
23675 29591 29594 28
23676 29591 29595 28
23677 29596 29597 28
23678 29596 29598 28
23679 29596 29599 28
23680 29596 29600 28
23681 29601 29602 28
23682 29601 29603 28
23683 29601 29604 28
23684 29601 29605 28
23685 29606 29607 28
23686 29606 29608 28
23687 29606 29609 28
23688 29606 29610 28
23689 29611 29612 28
23690 29611 29613 28
23691 29611 29614 28
23692 29611 29615 28
23693 29616 29617 28
23694 29616 29618 28
23695 29616 29619 28
23696 29616 29620 28
23697 29621 29622 28
23698 29621 29623 28
23699 29621 29624 28
23700 29621 29625 28
23701 29626 29627 28
23702 29626 29628 28
23703 29626 29629 28
23704 29626 29630 28
23705 29631 29632 28
23706 29631 29633 28
23707 29631 29634 28
23708 29631 29635 28
23709 29636 29637 28
23710 29636 29638 28
23711 29636 29639 28
23712 29636 29640 28
23713 29641 29642 28
23714 29641 29643 28
23715 29641 29644 28
23716 29641 29645 28
23717 29646 29647 28
23718 29646 29648 28
23719 29646 29649 28
23720 29646 29650 28
23721 29651 29652 28
23722 29651 29653 28
23723 29651 29654 28
23724 29651 29655 28
23725 29656 29657 28
23726 29656 29658 28
23727 29656 29659 28
23728 29656 29660 28
23729 29661 29662 28
23730 29661 29663 28
23731 29661 29664 28
23732 29661 29665 28
23733 29666 29667 28
23734 29666 29668 28
23735 29666 29669 28
23736 29666 29670 28
23737 29671 29672 28
23738 29671 29673 28
23739 29671 29674 28
23740 29671 29675 28
23741 29676 29677 28
23742 29676 29678 28
23743 29676 29679 28
23744 29676 29680 28
23745 29681 29682 28
23746 29681 29683 28
23747 29681 29684 28
23748 29681 29685 28
23749 29686 29687 28
23750 29686 29688 28
23751 29686 29689 28
23752 29686 29690 28
23753 29691 29692 28
23754 29691 29693 28
23755 29691 29694 28
23756 29691 29695 28
23757 29696 29697 28
23758 29696 29698 28
23759 29696 29699 28
23760 29696 29700 28
23761 29701 29702 28
23762 29701 29703 28
23763 29701 29704 28
23764 29701 29705 28
23765 29706 29707 28
23766 29706 29708 28
23767 29706 29709 28
23768 29706 29710 28
23769 29711 29712 28
23770 29711 29713 28
23771 29711 29714 28
23772 29711 29715 28
23773 29716 29717 28
23774 29716 29718 28
23775 29716 29719 28
23776 29716 29720 28
23777 29721 29722 28
23778 29721 29723 28
23779 29721 29724 28
23780 29721 29725 28
23781 29726 29727 28
23782 29726 29728 28
23783 29726 29729 28
23784 29726 29730 28
23785 29731 29732 28
23786 29731 29733 28
23787 29731 29734 28
23788 29731 29735 28
23789 29736 29737 28
23790 29736 29738 28
23791 29736 29739 28
23792 29736 29740 28
23793 29741 29742 28
23794 29741 29743 28
23795 29741 29744 28
23796 29741 29745 28
23797 29746 29747 28
23798 29746 29748 28
23799 29746 29749 28
23800 29746 29750 28
23801 29751 29752 28
23802 29751 29753 28
23803 29751 29754 28
23804 29751 29755 28
23805 29756 29757 28
23806 29756 29758 28
23807 29756 29759 28
23808 29756 29760 28
23809 29761 29762 28
23810 29761 29763 28
23811 29761 29764 28
23812 29761 29765 28
23813 29766 29767 28
23814 29766 29768 28
23815 29766 29769 28
23816 29766 29770 28
23817 29771 29772 28
23818 29771 29773 28
23819 29771 29774 28
23820 29771 29775 28
23821 29776 29777 28
23822 29776 29778 28
23823 29776 29779 28
23824 29776 29780 28
23825 29781 29782 28
23826 29781 29783 28
23827 29781 29784 28
23828 29781 29785 28
23829 29786 29787 28
23830 29786 29788 28
23831 29786 29789 28
23832 29786 29790 28
23833 29791 29792 28
23834 29791 29793 28
23835 29791 29794 28
23836 29791 29795 28
23837 29796 29797 28
23838 29796 29798 28
23839 29796 29799 28
23840 29796 29800 28
23841 29801 29802 28
23842 29801 29803 28
23843 29801 29804 28
23844 29801 29805 28
23845 29806 29807 28
23846 29806 29808 28
23847 29806 29809 28
23848 29806 29810 28
23849 29811 29812 28
23850 29811 29813 28
23851 29811 29814 28
23852 29811 29815 28
23853 29816 29817 28
23854 29816 29818 28
23855 29816 29819 28
23856 29816 29820 28
23857 29821 29822 28
23858 29821 29823 28
23859 29821 29824 28
23860 29821 29825 28
23861 29826 29827 28
23862 29826 29828 28
23863 29826 29829 28
23864 29826 29830 28
23865 29831 29832 28
23866 29831 29833 28
23867 29831 29834 28
23868 29831 29835 28
23869 29836 29837 28
23870 29836 29838 28
23871 29836 29839 28
23872 29836 29840 28
23873 29841 29842 28
23874 29841 29843 28
23875 29841 29844 28
23876 29841 29845 28
23877 29846 29847 28
23878 29846 29848 28
23879 29846 29849 28
23880 29846 29850 28
23881 29851 29852 28
23882 29851 29853 28
23883 29851 29854 28
23884 29851 29855 28
23885 29856 29857 28
23886 29856 29858 28
23887 29856 29859 28
23888 29856 29860 28
23889 29861 29862 28
23890 29861 29863 28
23891 29861 29864 28
23892 29861 29865 28
23893 29866 29867 28
23894 29866 29868 28
23895 29866 29869 28
23896 29866 29870 28
23897 29871 29872 28
23898 29871 29873 28
23899 29871 29874 28
23900 29871 29875 28
23901 29876 29877 28
23902 29876 29878 28
23903 29876 29879 28
23904 29876 29880 28
23905 29881 29882 28
23906 29881 29883 28
23907 29881 29884 28
23908 29881 29885 28
23909 29886 29887 28
23910 29886 29888 28
23911 29886 29889 28
23912 29886 29890 28
23913 29891 29892 28
23914 29891 29893 28
23915 29891 29894 28
23916 29891 29895 28
23917 29896 29897 28
23918 29896 29898 28
23919 29896 29899 28
23920 29896 29900 28
23921 29901 29902 28
23922 29901 29903 28
23923 29901 29904 28
23924 29901 29905 28
23925 29906 29907 28
23926 29906 29908 28
23927 29906 29909 28
23928 29906 29910 28
23929 29911 29912 28
23930 29911 29913 28
23931 29911 29914 28
23932 29911 29915 28
23933 29916 29917 28
23934 29916 29918 28
23935 29916 29919 28
23936 29916 29920 28
23937 29921 29922 28
23938 29921 29923 28
23939 29921 29924 28
23940 29921 29925 28
23941 29926 29927 28
23942 29926 29928 28
23943 29926 29929 28
23944 29926 29930 28
23945 29931 29932 28
23946 29931 29933 28
23947 29931 29934 28
23948 29931 29935 28
23949 29936 29937 28
23950 29936 29938 28
23951 29936 29939 28
23952 29936 29940 28
23953 29941 29942 28
23954 29941 29943 28
23955 29941 29944 28
23956 29941 29945 28
23957 29946 29947 28
23958 29946 29948 28
23959 29946 29949 28
23960 29946 29950 28
23961 29951 29952 28
23962 29951 29953 28
23963 29951 29954 28
23964 29951 29955 28
23965 29956 29957 28
23966 29956 29958 28
23967 29956 29959 28
23968 29956 29960 28
23969 29961 29962 28
23970 29961 29963 28
23971 29961 29964 28
23972 29961 29965 28
23973 29966 29967 28
23974 29966 29968 28
23975 29966 29969 28
23976 29966 29970 28
23977 29971 29972 28
23978 29971 29973 28
23979 29971 29974 28
23980 29971 29975 28
23981 29976 29977 28
23982 29976 29978 28
23983 29976 29979 28
23984 29976 29980 28
23985 29981 29982 28
23986 29981 29983 28
23987 29981 29984 28
23988 29981 29985 28
23989 29986 29987 28
23990 29986 29988 28
23991 29986 29989 28
23992 29986 29990 28
23993 29991 29992 28
23994 29991 29993 28
23995 29991 29994 28
23996 29991 29995 28
23997 29996 29997 28
23998 29996 29998 28
23999 29996 29999 28
24000 29996 30000 28
24001 30001 30002 28
24002 30001 30003 28
24003 30001 30004 28
24004 30001 30005 28
24005 30006 30007 28
24006 30006 30008 28
24007 30006 30009 28
24008 30006 30010 28
24009 30011 30012 28
24010 30011 30013 28
24011 30011 30014 28
24012 30011 30015 28
24013 30016 30017 28
24014 30016 30018 28
24015 30016 30019 28
24016 30016 30020 28
24017 30021 30022 28
24018 30021 30023 28
24019 30021 30024 28
24020 30021 30025 28
24021 30026 30027 28
24022 30026 30028 28
24023 30026 30029 28
24024 30026 30030 28
24025 30031 30032 28
24026 30031 30033 28
24027 30031 30034 28
24028 30031 30035 28
24029 30036 30037 28
24030 30036 30038 28
24031 30036 30039 28
24032 30036 30040 28
24033 30041 30042 28
24034 30041 30043 28
24035 30041 30044 28
24036 30041 30045 28
24037 30046 30047 28
24038 30046 30048 28
24039 30046 30049 28
24040 30046 30050 28
24041 30051 30052 28
24042 30051 30053 28
24043 30051 30054 28
24044 30051 30055 28
24045 30056 30057 28
24046 30056 30058 28
24047 30056 30059 28
24048 30056 30060 28
24049 30061 30062 28
24050 30061 30063 28
24051 30061 30064 28
24052 30061 30065 28
24053 30066 30067 28
24054 30066 30068 28
24055 30066 30069 28
24056 30066 30070 28
24057 30071 30072 28
24058 30071 30073 28
24059 30071 30074 28
24060 30071 30075 28
24061 30076 30077 28
24062 30076 30078 28
24063 30076 30079 28
24064 30076 30080 28
24065 30081 30082 28
24066 30081 30083 28
24067 30081 30084 28
24068 30081 30085 28
24069 30086 30087 28
24070 30086 30088 28
24071 30086 30089 28
24072 30086 30090 28
24073 30091 30092 28
24074 30091 30093 28
24075 30091 30094 28
24076 30091 30095 28
24077 30096 30097 28
24078 30096 30098 28
24079 30096 30099 28
24080 30096 30100 28
24081 30101 30102 28
24082 30101 30103 28
24083 30101 30104 28
24084 30101 30105 28
24085 30106 30107 28
24086 30106 30108 28
24087 30106 30109 28
24088 30106 30110 28
24089 30111 30112 28
24090 30111 30113 28
24091 30111 30114 28
24092 30111 30115 28
24093 30116 30117 28
24094 30116 30118 28
24095 30116 30119 28
24096 30116 30120 28
24097 30121 30122 28
24098 30121 30123 28
24099 30121 30124 28
24100 30121 30125 28
24101 30126 30127 28
24102 30126 30128 28
24103 30126 30129 28
24104 30126 30130 28
24105 30131 30132 28
24106 30131 30133 28
24107 30131 30134 28
24108 30131 30135 28
24109 30136 30137 28
24110 30136 30138 28
24111 30136 30139 28
24112 30136 30140 28
24113 30141 30142 28
24114 30141 30143 28
24115 30141 30144 28
24116 30141 30145 28
24117 30146 30147 28
24118 30146 30148 28
24119 30146 30149 28
24120 30146 30150 28
24121 30151 30152 28
24122 30151 30153 28
24123 30151 30154 28
24124 30151 30155 28
24125 30156 30157 28
24126 30156 30158 28
24127 30156 30159 28
24128 30156 30160 28
24129 30161 30162 28
24130 30161 30163 28
24131 30161 30164 28
24132 30161 30165 28
24133 30166 30167 28
24134 30166 30168 28
24135 30166 30169 28
24136 30166 30170 28
24137 30171 30172 28
24138 30171 30173 28
24139 30171 30174 28
24140 30171 30175 28
24141 30176 30177 28
24142 30176 30178 28
24143 30176 30179 28
24144 30176 30180 28
24145 30181 30182 28
24146 30181 30183 28
24147 30181 30184 28
24148 30181 30185 28
24149 30186 30187 28
24150 30186 30188 28
24151 30186 30189 28
24152 30186 30190 28
24153 30191 30192 28
24154 30191 30193 28
24155 30191 30194 28
24156 30191 30195 28
24157 30196 30197 28
24158 30196 30198 28
24159 30196 30199 28
24160 30196 30200 28
24161 30201 30202 28
24162 30201 30203 28
24163 30201 30204 28
24164 30201 30205 28
24165 30206 30207 28
24166 30206 30208 28
24167 30206 30209 28
24168 30206 30210 28
24169 30211 30212 28
24170 30211 30213 28
24171 30211 30214 28
24172 30211 30215 28
24173 30216 30217 28
24174 30216 30218 28
24175 30216 30219 28
24176 30216 30220 28
24177 30221 30222 28
24178 30221 30223 28
24179 30221 30224 28
24180 30221 30225 28
24181 30226 30227 28
24182 30226 30228 28
24183 30226 30229 28
24184 30226 30230 28
24185 30231 30232 28
24186 30231 30233 28
24187 30231 30234 28
24188 30231 30235 28
24189 30236 30237 28
24190 30236 30238 28
24191 30236 30239 28
24192 30236 30240 28
24193 30241 30242 28
24194 30241 30243 28
24195 30241 30244 28
24196 30241 30245 28
24197 30246 30247 28
24198 30246 30248 28
24199 30246 30249 28
24200 30246 30250 28
24201 30251 30252 28
24202 30251 30253 28
24203 30251 30254 28
24204 30251 30255 28
24205 30256 30257 28
24206 30256 30258 28
24207 30256 30259 28
24208 30256 30260 28
24209 30261 30262 28
24210 30261 30263 28
24211 30261 30264 28
24212 30261 30265 28
24213 30266 30267 28
24214 30266 30268 28
24215 30266 30269 28
24216 30266 30270 28
24217 30271 30272 28
24218 30271 30273 28
24219 30271 30274 28
24220 30271 30275 28
24221 30276 30277 28
24222 30276 30278 28
24223 30276 30279 28
24224 30276 30280 28
24225 30281 30282 28
24226 30281 30283 28
24227 30281 30284 28
24228 30281 30285 28
24229 30286 30287 28
24230 30286 30288 28
24231 30286 30289 28
24232 30286 30290 28
24233 30291 30292 28
24234 30291 30293 28
24235 30291 30294 28
24236 30291 30295 28
24237 30296 30297 28
24238 30296 30298 28
24239 30296 30299 28
24240 30296 30300 28
24241 30301 30302 28
24242 30301 30303 28
24243 30301 30304 28
24244 30301 30305 28
24245 30306 30307 28
24246 30306 30308 28
24247 30306 30309 28
24248 30306 30310 28
24249 30311 30312 28
24250 30311 30313 28
24251 30311 30314 28
24252 30311 30315 28
24253 30316 30317 28
24254 30316 30318 28
24255 30316 30319 28
24256 30316 30320 28
24257 30321 30322 28
24258 30321 30323 28
24259 30321 30324 28
24260 30321 30325 28
24261 30326 30327 28
24262 30326 30328 28
24263 30326 30329 28
24264 30326 30330 28
24265 30331 30332 28
24266 30331 30333 28
24267 30331 30334 28
24268 30331 30335 28
24269 30336 30337 28
24270 30336 30338 28
24271 30336 30339 28
24272 30336 30340 28
24273 30341 30342 28
24274 30341 30343 28
24275 30341 30344 28
24276 30341 30345 28
24277 30346 30347 28
24278 30346 30348 28
24279 30346 30349 28
24280 30346 30350 28
24281 30351 30352 28
24282 30351 30353 28
24283 30351 30354 28
24284 30351 30355 28
24285 30356 30357 28
24286 30356 30358 28
24287 30356 30359 28
24288 30356 30360 28
24289 30361 30362 28
24290 30361 30363 28
24291 30361 30364 28
24292 30361 30365 28
24293 30366 30367 28
24294 30366 30368 28
24295 30366 30369 28
24296 30366 30370 28
24297 30371 30372 28
24298 30371 30373 28
24299 30371 30374 28
24300 30371 30375 28
24301 30376 30377 28
24302 30376 30378 28
24303 30376 30379 28
24304 30376 30380 28
24305 30381 30382 28
24306 30381 30383 28
24307 30381 30384 28
24308 30381 30385 28
24309 30386 30387 28
24310 30386 30388 28
24311 30386 30389 28
24312 30386 30390 28
24313 30391 30392 28
24314 30391 30393 28
24315 30391 30394 28
24316 30391 30395 28
24317 30396 30397 28
24318 30396 30398 28
24319 30396 30399 28
24320 30396 30400 28
24321 30401 30402 28
24322 30401 30403 28
24323 30401 30404 28
24324 30401 30405 28
24325 30406 30407 28
24326 30406 30408 28
24327 30406 30409 28
24328 30406 30410 28
24329 30411 30412 28
24330 30411 30413 28
24331 30411 30414 28
24332 30411 30415 28
24333 30416 30417 28
24334 30416 30418 28
24335 30416 30419 28
24336 30416 30420 28
24337 30421 30422 28
24338 30421 30423 28
24339 30421 30424 28
24340 30421 30425 28
24341 30426 30427 28
24342 30426 30428 28
24343 30426 30429 28
24344 30426 30430 28
24345 30431 30432 28
24346 30431 30433 28
24347 30431 30434 28
24348 30431 30435 28
24349 30436 30437 28
24350 30436 30438 28
24351 30436 30439 28
24352 30436 30440 28
24353 30441 30442 28
24354 30441 30443 28
24355 30441 30444 28
24356 30441 30445 28
24357 30446 30447 28
24358 30446 30448 28
24359 30446 30449 28
24360 30446 30450 28
24361 30451 30452 28
24362 30451 30453 28
24363 30451 30454 28
24364 30451 30455 28
24365 30456 30457 28
24366 30456 30458 28
24367 30456 30459 28
24368 30456 30460 28
24369 30461 30462 28
24370 30461 30463 28
24371 30461 30464 28
24372 30461 30465 28
24373 30466 30467 28
24374 30466 30468 28
24375 30466 30469 28
24376 30466 30470 28
24377 30471 30472 28
24378 30471 30473 28
24379 30471 30474 28
24380 30471 30475 28
24381 30476 30477 28
24382 30476 30478 28
24383 30476 30479 28
24384 30476 30480 28
24385 30481 30482 28
24386 30481 30483 28
24387 30481 30484 28
24388 30481 30485 28
24389 30486 30487 28
24390 30486 30488 28
24391 30486 30489 28
24392 30486 30490 28
24393 30491 30492 28
24394 30491 30493 28
24395 30491 30494 28
24396 30491 30495 28
24397 30496 30497 28
24398 30496 30498 28
24399 30496 30499 28
24400 30496 30500 28
24401 30501 30502 28
24402 30501 30503 28
24403 30501 30504 28
24404 30501 30505 28
24405 30506 30507 28
24406 30506 30508 28
24407 30506 30509 28
24408 30506 30510 28
24409 30511 30512 28
24410 30511 30513 28
24411 30511 30514 28
24412 30511 30515 28
24413 30516 30517 28
24414 30516 30518 28
24415 30516 30519 28
24416 30516 30520 28
24417 30521 30522 28
24418 30521 30523 28
24419 30521 30524 28
24420 30521 30525 28
24421 30526 30527 28
24422 30526 30528 28
24423 30526 30529 28
24424 30526 30530 28
24425 30531 30532 28
24426 30531 30533 28
24427 30531 30534 28
24428 30531 30535 28
24429 30536 30537 28
24430 30536 30538 28
24431 30536 30539 28
24432 30536 30540 28
24433 30541 30542 28
24434 30541 30543 28
24435 30541 30544 28
24436 30541 30545 28
24437 30546 30547 28
24438 30546 30548 28
24439 30546 30549 28
24440 30546 30550 28
24441 30551 30552 28
24442 30551 30553 28
24443 30551 30554 28
24444 30551 30555 28
24445 30556 30557 28
24446 30556 30558 28
24447 30556 30559 28
24448 30556 30560 28
24449 30561 30562 28
24450 30561 30563 28
24451 30561 30564 28
24452 30561 30565 28
24453 30566 30567 28
24454 30566 30568 28
24455 30566 30569 28
24456 30566 30570 28
24457 30571 30572 28
24458 30571 30573 28
24459 30571 30574 28
24460 30571 30575 28
24461 30576 30577 28
24462 30576 30578 28
24463 30576 30579 28
24464 30576 30580 28
24465 30581 30582 28
24466 30581 30583 28
24467 30581 30584 28
24468 30581 30585 28
24469 30586 30587 28
24470 30586 30588 28
24471 30586 30589 28
24472 30586 30590 28
24473 30591 30592 28
24474 30591 30593 28
24475 30591 30594 28
24476 30591 30595 28
24477 30596 30597 28
24478 30596 30598 28
24479 30596 30599 28
24480 30596 30600 28
24481 30601 30602 28
24482 30601 30603 28
24483 30601 30604 28
24484 30601 30605 28
24485 30606 30607 28
24486 30606 30608 28
24487 30606 30609 28
24488 30606 30610 28
24489 30611 30612 28
24490 30611 30613 28
24491 30611 30614 28
24492 30611 30615 28
24493 30616 30617 28
24494 30616 30618 28
24495 30616 30619 28
24496 30616 30620 28
24497 30621 30622 28
24498 30621 30623 28
24499 30621 30624 28
24500 30621 30625 28
24501 30626 30627 28
24502 30626 30628 28
24503 30626 30629 28
24504 30626 30630 28
24505 30631 30632 28
24506 30631 30633 28
24507 30631 30634 28
24508 30631 30635 28
24509 30636 30637 28
24510 30636 30638 28
24511 30636 30639 28
24512 30636 30640 28
24513 30641 30642 28
24514 30641 30643 28
24515 30641 30644 28
24516 30641 30645 28
24517 30646 30647 28
24518 30646 30648 28
24519 30646 30649 28
24520 30646 30650 28
24521 30651 30652 28
24522 30651 30653 28
24523 30651 30654 28
24524 30651 30655 28
24525 30656 30657 28
24526 30656 30658 28
24527 30656 30659 28
24528 30656 30660 28
24529 30661 30662 28
24530 30661 30663 28
24531 30661 30664 28
24532 30661 30665 28
24533 30666 30667 28
24534 30666 30668 28
24535 30666 30669 28
24536 30666 30670 28
24537 30671 30672 28
24538 30671 30673 28
24539 30671 30674 28
24540 30671 30675 28
24541 30676 30677 28
24542 30676 30678 28
24543 30676 30679 28
24544 30676 30680 28
24545 30681 30682 28
24546 30681 30683 28
24547 30681 30684 28
24548 30681 30685 28
24549 30686 30687 28
24550 30686 30688 28
24551 30686 30689 28
24552 30686 30690 28
24553 30691 30692 28
24554 30691 30693 28
24555 30691 30694 28
24556 30691 30695 28
24557 30696 30697 28
24558 30696 30698 28
24559 30696 30699 28
24560 30696 30700 28
24561 30701 30702 28
24562 30701 30703 28
24563 30701 30704 28
24564 30701 30705 28
24565 30706 30707 28
24566 30706 30708 28
24567 30706 30709 28
24568 30706 30710 28
24569 30711 30712 28
24570 30711 30713 28
24571 30711 30714 28
24572 30711 30715 28
24573 30716 30717 28
24574 30716 30718 28
24575 30716 30719 28
24576 30716 30720 28
24577 30721 30722 28
24578 30721 30723 28
24579 30721 30724 28
24580 30721 30725 28
24581 30726 30727 28
24582 30726 30728 28
24583 30726 30729 28
24584 30726 30730 28
24585 30731 30732 28
24586 30731 30733 28
24587 30731 30734 28
24588 30731 30735 28
24589 30736 30737 28
24590 30736 30738 28
24591 30736 30739 28
24592 30736 30740 28
24593 30741 30742 28
24594 30741 30743 28
24595 30741 30744 28
24596 30741 30745 28
24597 30746 30747 28
24598 30746 30748 28
24599 30746 30749 28
24600 30746 30750 28
24601 30751 30752 28
24602 30751 30753 28
24603 30751 30754 28
24604 30751 30755 28
24605 30756 30757 28
24606 30756 30758 28
24607 30756 30759 28
24608 30756 30760 28
24609 30761 30762 28
24610 30761 30763 28
24611 30761 30764 28
24612 30761 30765 28
24613 30766 30767 28
24614 30766 30768 28
24615 30766 30769 28
24616 30766 30770 28
24617 30771 30772 28
24618 30771 30773 28
24619 30771 30774 28
24620 30771 30775 28
24621 30776 30777 28
24622 30776 30778 28
24623 30776 30779 28
24624 30776 30780 28
24625 30781 30782 28
24626 30781 30783 28
24627 30781 30784 28
24628 30781 30785 28
24629 30786 30787 28
24630 30786 30788 28
24631 30786 30789 28
24632 30786 30790 28
24633 30791 30792 28
24634 30791 30793 28
24635 30791 30794 28
24636 30791 30795 28
24637 30796 30797 28
24638 30796 30798 28
24639 30796 30799 28
24640 30796 30800 28
24641 30801 30802 28
24642 30801 30803 28
24643 30801 30804 28
24644 30801 30805 28
24645 30806 30807 28
24646 30806 30808 28
24647 30806 30809 28
24648 30806 30810 28
24649 30811 30812 28
24650 30811 30813 28
24651 30811 30814 28
24652 30811 30815 28
24653 30816 30817 28
24654 30816 30818 28
24655 30816 30819 28
24656 30816 30820 28
24657 30821 30822 28
24658 30821 30823 28
24659 30821 30824 28
24660 30821 30825 28
24661 30826 30827 28
24662 30826 30828 28
24663 30826 30829 28
24664 30826 30830 28
24665 30831 30832 28
24666 30831 30833 28
24667 30831 30834 28
24668 30831 30835 28
24669 30836 30837 28
24670 30836 30838 28
24671 30836 30839 28
24672 30836 30840 28
24673 30841 30842 28
24674 30841 30843 28
24675 30841 30844 28
24676 30841 30845 28
24677 30846 30847 28
24678 30846 30848 28
24679 30846 30849 28
24680 30846 30850 28
24681 30851 30852 28
24682 30851 30853 28
24683 30851 30854 28
24684 30851 30855 28
24685 30856 30857 28
24686 30856 30858 28
24687 30856 30859 28
24688 30856 30860 28
24689 30861 30862 28
24690 30861 30863 28
24691 30861 30864 28
24692 30861 30865 28
24693 30866 30867 28
24694 30866 30868 28
24695 30866 30869 28
24696 30866 30870 28
24697 30871 30872 28
24698 30871 30873 28
24699 30871 30874 28
24700 30871 30875 28
24701 30876 30877 28
24702 30876 30878 28
24703 30876 30879 28
24704 30876 30880 28
24705 30881 30882 28
24706 30881 30883 28
24707 30881 30884 28
24708 30881 30885 28
24709 30886 30887 28
24710 30886 30888 28
24711 30886 30889 28
24712 30886 30890 28
24713 30891 30892 28
24714 30891 30893 28
24715 30891 30894 28
24716 30891 30895 28
24717 30896 30897 28
24718 30896 30898 28
24719 30896 30899 28
24720 30896 30900 28
24721 30901 30902 28
24722 30901 30903 28
24723 30901 30904 28
24724 30901 30905 28
24725 30906 30907 28
24726 30906 30908 28
24727 30906 30909 28
24728 30906 30910 28
24729 30911 30912 28
24730 30911 30913 28
24731 30911 30914 28
24732 30911 30915 28
24733 30916 30917 28
24734 30916 30918 28
24735 30916 30919 28
24736 30916 30920 28
24737 30921 30922 28
24738 30921 30923 28
24739 30921 30924 28
24740 30921 30925 28
24741 30926 30927 28
24742 30926 30928 28
24743 30926 30929 28
24744 30926 30930 28
24745 30931 30932 28
24746 30931 30933 28
24747 30931 30934 28
24748 30931 30935 28
24749 30936 30937 28
24750 30936 30938 28
24751 30936 30939 28
24752 30936 30940 28
24753 30941 30942 28
24754 30941 30943 28
24755 30941 30944 28
24756 30941 30945 28
24757 30946 30947 28
24758 30946 30948 28
24759 30946 30949 28
24760 30946 30950 28
24761 30951 30952 28
24762 30951 30953 28
24763 30951 30954 28
24764 30951 30955 28
24765 30956 30957 28
24766 30956 30958 28
24767 30956 30959 28
24768 30956 30960 28
24769 30961 30962 28
24770 30961 30963 28
24771 30961 30964 28
24772 30961 30965 28
24773 30966 30967 28
24774 30966 30968 28
24775 30966 30969 28
24776 30966 30970 28
24777 30971 30972 28
24778 30971 30973 28
24779 30971 30974 28
24780 30971 30975 28
24781 30976 30977 28
24782 30976 30978 28
24783 30976 30979 28
24784 30976 30980 28
24785 30981 30982 28
24786 30981 30983 28
24787 30981 30984 28
24788 30981 30985 28
24789 30986 30987 28
24790 30986 30988 28
24791 30986 30989 28
24792 30986 30990 28
24793 30991 30992 28
24794 30991 30993 28
24795 30991 30994 28
24796 30991 30995 28
24797 30996 30997 28
24798 30996 30998 28
24799 30996 30999 28
24800 30996 31000 28
24801 31001 31002 28
24802 31001 31003 28
24803 31001 31004 28
24804 31001 31005 28
24805 31006 31007 28
24806 31006 31008 28
24807 31006 31009 28
24808 31006 31010 28
24809 31011 31012 28
24810 31011 31013 28
24811 31011 31014 28
24812 31011 31015 28
24813 31016 31017 28
24814 31016 31018 28
24815 31016 31019 28
24816 31016 31020 28
24817 31021 31022 28
24818 31021 31023 28
24819 31021 31024 28
24820 31021 31025 28
24821 31026 31027 28
24822 31026 31028 28
24823 31026 31029 28
24824 31026 31030 28
24825 31031 31032 28
24826 31031 31033 28
24827 31031 31034 28
24828 31031 31035 28
24829 31036 31037 28
24830 31036 31038 28
24831 31036 31039 28
24832 31036 31040 28
24833 31041 31042 28
24834 31041 31043 28
24835 31041 31044 28
24836 31041 31045 28
24837 31046 31047 28
24838 31046 31048 28
24839 31046 31049 28
24840 31046 31050 28
24841 31051 31052 28
24842 31051 31053 28
24843 31051 31054 28
24844 31051 31055 28
24845 31056 31057 28
24846 31056 31058 28
24847 31056 31059 28
24848 31056 31060 28
24849 31061 31062 28
24850 31061 31063 28
24851 31061 31064 28
24852 31061 31065 28
24853 31066 31067 28
24854 31066 31068 28
24855 31066 31069 28
24856 31066 31070 28
24857 31071 31072 28
24858 31071 31073 28
24859 31071 31074 28
24860 31071 31075 28
24861 31076 31077 28
24862 31076 31078 28
24863 31076 31079 28
24864 31076 31080 28
24865 31081 31082 28
24866 31081 31083 28
24867 31081 31084 28
24868 31081 31085 28
24869 31086 31087 28
24870 31086 31088 28
24871 31086 31089 28
24872 31086 31090 28
24873 31091 31092 28
24874 31091 31093 28
24875 31091 31094 28
24876 31091 31095 28
24877 31096 31097 28
24878 31096 31098 28
24879 31096 31099 28
24880 31096 31100 28
24881 31101 31102 28
24882 31101 31103 28
24883 31101 31104 28
24884 31101 31105 28
24885 31106 31107 28
24886 31106 31108 28
24887 31106 31109 28
24888 31106 31110 28
24889 31111 31112 28
24890 31111 31113 28
24891 31111 31114 28
24892 31111 31115 28
24893 31116 31117 28
24894 31116 31118 28
24895 31116 31119 28
24896 31116 31120 28
24897 31121 31122 28
24898 31121 31123 28
24899 31121 31124 28
24900 31121 31125 28
24901 31126 31127 28
24902 31126 31128 28
24903 31126 31129 28
24904 31126 31130 28
24905 31131 31132 28
24906 31131 31133 28
24907 31131 31134 28
24908 31131 31135 28
24909 31136 31137 28
24910 31136 31138 28
24911 31136 31139 28
24912 31136 31140 28
24913 31141 31142 28
24914 31141 31143 28
24915 31141 31144 28
24916 31141 31145 28
24917 31146 31147 28
24918 31146 31148 28
24919 31146 31149 28
24920 31146 31150 28
24921 31151 31152 28
24922 31151 31153 28
24923 31151 31154 28
24924 31151 31155 28
24925 31156 31157 28
24926 31156 31158 28
24927 31156 31159 28
24928 31156 31160 28
24929 31161 31162 28
24930 31161 31163 28
24931 31161 31164 28
24932 31161 31165 28
24933 31166 31167 28
24934 31166 31168 28
24935 31166 31169 28
24936 31166 31170 28
24937 31171 31172 28
24938 31171 31173 28
24939 31171 31174 28
24940 31171 31175 28
24941 31176 31177 28
24942 31176 31178 28
24943 31176 31179 28
24944 31176 31180 28
24945 31181 31182 28
24946 31181 31183 28
24947 31181 31184 28
24948 31181 31185 28
24949 31186 31187 28
24950 31186 31188 28
24951 31186 31189 28
24952 31186 31190 28
24953 31191 31192 28
24954 31191 31193 28
24955 31191 31194 28
24956 31191 31195 28
24957 31196 31197 28
24958 31196 31198 28
24959 31196 31199 28
24960 31196 31200 28
24961 31201 31202 28
24962 31201 31203 28
24963 31201 31204 28
24964 31201 31205 28
24965 31206 31207 28
24966 31206 31208 28
24967 31206 31209 28
24968 31206 31210 28
24969 31211 31212 28
24970 31211 31213 28
24971 31211 31214 28
24972 31211 31215 28
24973 31216 31217 28
24974 31216 31218 28
24975 31216 31219 28
24976 31216 31220 28
24977 31221 31222 28
24978 31221 31223 28
24979 31221 31224 28
24980 31221 31225 28
24981 31226 31227 28
24982 31226 31228 28
24983 31226 31229 28
24984 31226 31230 28
24985 31231 31232 28
24986 31231 31233 28
24987 31231 31234 28
24988 31231 31235 28
24989 31236 31237 28
24990 31236 31238 28
24991 31236 31239 28
24992 31236 31240 28
24993 31241 31242 28
24994 31241 31243 28
24995 31241 31244 28
24996 31241 31245 28
24997 31246 31247 28
24998 31246 31248 28
24999 31246 31249 28
25000 31246 31250 28
25001 31251 31252 28
25002 31251 31253 28
25003 31251 31254 28
25004 31251 31255 28
25005 31256 31257 28
25006 31256 31258 28
25007 31256 31259 28
25008 31256 31260 28
25009 31261 31262 28
25010 31261 31263 28
25011 31261 31264 28
25012 31261 31265 28
25013 31266 31267 28
25014 31266 31268 28
25015 31266 31269 28
25016 31266 31270 28
25017 31271 31272 28
25018 31271 31273 28
25019 31271 31274 28
25020 31271 31275 28
25021 31276 31277 28
25022 31276 31278 28
25023 31276 31279 28
25024 31276 31280 28
25025 31281 31282 28
25026 31281 31283 28
25027 31281 31284 28
25028 31281 31285 28
25029 31286 31287 28
25030 31286 31288 28
25031 31286 31289 28
25032 31286 31290 28
25033 31291 31292 28
25034 31291 31293 28
25035 31291 31294 28
25036 31291 31295 28
25037 31296 31297 28
25038 31296 31298 28
25039 31296 31299 28
25040 31296 31300 28
25041 31301 31302 28
25042 31301 31303 28
25043 31301 31304 28
25044 31301 31305 28
25045 31306 31307 28
25046 31306 31308 28
25047 31306 31309 28
25048 31306 31310 28
25049 31311 31312 28
25050 31311 31313 28
25051 31311 31314 28
25052 31311 31315 28
25053 31316 31317 28
25054 31316 31318 28
25055 31316 31319 28
25056 31316 31320 28
25057 31321 31322 28
25058 31321 31323 28
25059 31321 31324 28
25060 31321 31325 28
25061 31326 31327 28
25062 31326 31328 28
25063 31326 31329 28
25064 31326 31330 28
25065 31331 31332 28
25066 31331 31333 28
25067 31331 31334 28
25068 31331 31335 28
25069 31336 31337 28
25070 31336 31338 28
25071 31336 31339 28
25072 31336 31340 28
25073 31341 31342 28
25074 31341 31343 28
25075 31341 31344 28
25076 31341 31345 28
25077 31346 31347 28
25078 31346 31348 28
25079 31346 31349 28
25080 31346 31350 28
25081 31351 31352 28
25082 31351 31353 28
25083 31351 31354 28
25084 31351 31355 28
25085 31356 31357 28
25086 31356 31358 28
25087 31356 31359 28
25088 31356 31360 28
25089 31361 31362 28
25090 31361 31363 28
25091 31361 31364 28
25092 31361 31365 28
25093 31366 31367 28
25094 31366 31368 28
25095 31366 31369 28
25096 31366 31370 28
25097 31371 31372 28
25098 31371 31373 28
25099 31371 31374 28
25100 31371 31375 28
25101 31376 31377 28
25102 31376 31378 28
25103 31376 31379 28
25104 31376 31380 28
25105 31381 31382 28
25106 31381 31383 28
25107 31381 31384 28
25108 31381 31385 28
25109 31386 31387 28
25110 31386 31388 28
25111 31386 31389 28
25112 31386 31390 28
25113 31391 31392 28
25114 31391 31393 28
25115 31391 31394 28
25116 31391 31395 28
25117 31396 31397 28
25118 31396 31398 28
25119 31396 31399 28
25120 31396 31400 28
25121 31401 31402 28
25122 31401 31403 28
25123 31401 31404 28
25124 31401 31405 28
25125 31406 31407 28
25126 31406 31408 28
25127 31406 31409 28
25128 31406 31410 28
25129 31411 31412 28
25130 31411 31413 28
25131 31411 31414 28
25132 31411 31415 28
25133 31416 31417 28
25134 31416 31418 28
25135 31416 31419 28
25136 31416 31420 28
25137 31421 31422 28
25138 31421 31423 28
25139 31421 31424 28
25140 31421 31425 28
25141 31426 31427 28
25142 31426 31428 28
25143 31426 31429 28
25144 31426 31430 28
25145 31431 31432 28
25146 31431 31433 28
25147 31431 31434 28
25148 31431 31435 28
25149 31436 31437 28
25150 31436 31438 28
25151 31436 31439 28
25152 31436 31440 28
25153 31441 31442 28
25154 31441 31443 28
25155 31441 31444 28
25156 31441 31445 28
25157 31446 31447 28
25158 31446 31448 28
25159 31446 31449 28
25160 31446 31450 28
25161 31451 31452 28
25162 31451 31453 28
25163 31451 31454 28
25164 31451 31455 28
25165 31456 31457 28
25166 31456 31458 28
25167 31456 31459 28
25168 31456 31460 28
25169 31461 31462 28
25170 31461 31463 28
25171 31461 31464 28
25172 31461 31465 28
25173 31466 31467 28
25174 31466 31468 28
25175 31466 31469 28
25176 31466 31470 28
25177 31471 31472 28
25178 31471 31473 28
25179 31471 31474 28
25180 31471 31475 28
25181 31476 31477 28
25182 31476 31478 28
25183 31476 31479 28
25184 31476 31480 28
25185 31481 31482 28
25186 31481 31483 28
25187 31481 31484 28
25188 31481 31485 28
25189 31486 31487 28
25190 31486 31488 28
25191 31486 31489 28
25192 31486 31490 28
25193 31491 31492 28
25194 31491 31493 28
25195 31491 31494 28
25196 31491 31495 28
25197 31496 31497 28
25198 31496 31498 28
25199 31496 31499 28
25200 31496 31500 28
25201 31501 31502 28
25202 31501 31503 28
25203 31501 31504 28
25204 31501 31505 28
25205 31506 31507 28
25206 31506 31508 28
25207 31506 31509 28
25208 31506 31510 28
25209 31511 31512 28
25210 31511 31513 28
25211 31511 31514 28
25212 31511 31515 28
25213 31516 31517 28
25214 31516 31518 28
25215 31516 31519 28
25216 31516 31520 28
25217 31521 31522 28
25218 31521 31523 28
25219 31521 31524 28
25220 31521 31525 28
25221 31526 31527 28
25222 31526 31528 28
25223 31526 31529 28
25224 31526 31530 28
25225 31531 31532 28
25226 31531 31533 28
25227 31531 31534 28
25228 31531 31535 28
25229 31536 31537 28
25230 31536 31538 28
25231 31536 31539 28
25232 31536 31540 28
25233 31541 31542 28
25234 31541 31543 28
25235 31541 31544 28
25236 31541 31545 28
25237 31546 31547 28
25238 31546 31548 28
25239 31546 31549 28
25240 31546 31550 28
25241 31551 31552 28
25242 31551 31553 28
25243 31551 31554 28
25244 31551 31555 28
25245 31556 31557 28
25246 31556 31558 28
25247 31556 31559 28
25248 31556 31560 28
25249 31561 31562 28
25250 31561 31563 28
25251 31561 31564 28
25252 31561 31565 28
25253 31566 31567 28
25254 31566 31568 28
25255 31566 31569 28
25256 31566 31570 28
25257 31571 31572 28
25258 31571 31573 28
25259 31571 31574 28
25260 31571 31575 28
25261 31576 31577 28
25262 31576 31578 28
25263 31576 31579 28
25264 31576 31580 28
25265 31581 31582 28
25266 31581 31583 28
25267 31581 31584 28
25268 31581 31585 28
25269 31586 31587 28
25270 31586 31588 28
25271 31586 31589 28
25272 31586 31590 28
25273 31591 31592 28
25274 31591 31593 28
25275 31591 31594 28
25276 31591 31595 28
25277 31596 31597 28
25278 31596 31598 28
25279 31596 31599 28
25280 31596 31600 28
25281 31601 31602 28
25282 31601 31603 28
25283 31601 31604 28
25284 31601 31605 28
25285 31606 31607 28
25286 31606 31608 28
25287 31606 31609 28
25288 31606 31610 28
25289 31611 31612 28
25290 31611 31613 28
25291 31611 31614 28
25292 31611 31615 28
25293 31616 31617 28
25294 31616 31618 28
25295 31616 31619 28
25296 31616 31620 28
25297 31621 31622 28
25298 31621 31623 28
25299 31621 31624 28
25300 31621 31625 28
25301 31626 31627 28
25302 31626 31628 28
25303 31626 31629 28
25304 31626 31630 28
25305 31631 31632 28
25306 31631 31633 28
25307 31631 31634 28
25308 31631 31635 28
25309 31636 31637 28
25310 31636 31638 28
25311 31636 31639 28
25312 31636 31640 28
25313 31641 31642 28
25314 31641 31643 28
25315 31641 31644 28
25316 31641 31645 28
25317 31646 31647 28
25318 31646 31648 28
25319 31646 31649 28
25320 31646 31650 28
25321 31651 31652 28
25322 31651 31653 28
25323 31651 31654 28
25324 31651 31655 28
25325 31656 31657 28
25326 31656 31658 28
25327 31656 31659 28
25328 31656 31660 28
25329 31661 31662 28
25330 31661 31663 28
25331 31661 31664 28
25332 31661 31665 28
25333 31666 31667 28
25334 31666 31668 28
25335 31666 31669 28
25336 31666 31670 28
25337 31671 31672 28
25338 31671 31673 28
25339 31671 31674 28
25340 31671 31675 28
25341 31676 31677 28
25342 31676 31678 28
25343 31676 31679 28
25344 31676 31680 28
25345 31681 31682 28
25346 31681 31683 28
25347 31681 31684 28
25348 31681 31685 28
25349 31686 31687 28
25350 31686 31688 28
25351 31686 31689 28
25352 31686 31690 28
25353 31691 31692 28
25354 31691 31693 28
25355 31691 31694 28
25356 31691 31695 28
25357 31696 31697 28
25358 31696 31698 28
25359 31696 31699 28
25360 31696 31700 28
25361 31701 31702 28
25362 31701 31703 28
25363 31701 31704 28
25364 31701 31705 28
25365 31706 31707 28
25366 31706 31708 28
25367 31706 31709 28
25368 31706 31710 28
25369 31711 31712 28
25370 31711 31713 28
25371 31711 31714 28
25372 31711 31715 28
25373 31716 31717 28
25374 31716 31718 28
25375 31716 31719 28
25376 31716 31720 28
25377 31721 31722 28
25378 31721 31723 28
25379 31721 31724 28
25380 31721 31725 28
25381 31726 31727 28
25382 31726 31728 28
25383 31726 31729 28
25384 31726 31730 28
25385 31731 31732 28
25386 31731 31733 28
25387 31731 31734 28
25388 31731 31735 28
25389 31736 31737 28
25390 31736 31738 28
25391 31736 31739 28
25392 31736 31740 28
25393 31741 31742 28
25394 31741 31743 28
25395 31741 31744 28
25396 31741 31745 28
25397 31746 31747 28
25398 31746 31748 28
25399 31746 31749 28
25400 31746 31750 28
25401 31751 31752 28
25402 31751 31753 28
25403 31751 31754 28
25404 31751 31755 28
25405 31756 31757 28
25406 31756 31758 28
25407 31756 31759 28
25408 31756 31760 28
25409 31761 31762 28
25410 31761 31763 28
25411 31761 31764 28
25412 31761 31765 28
25413 31766 31767 28
25414 31766 31768 28
25415 31766 31769 28
25416 31766 31770 28
25417 31771 31772 28
25418 31771 31773 28
25419 31771 31774 28
25420 31771 31775 28
25421 31776 31777 28
25422 31776 31778 28
25423 31776 31779 28
25424 31776 31780 28
25425 31781 31782 28
25426 31781 31783 28
25427 31781 31784 28
25428 31781 31785 28
25429 31786 31787 28
25430 31786 31788 28
25431 31786 31789 28
25432 31786 31790 28
25433 31791 31792 28
25434 31791 31793 28
25435 31791 31794 28
25436 31791 31795 28
25437 31796 31797 28
25438 31796 31798 28
25439 31796 31799 28
25440 31796 31800 28
25441 31801 31802 28
25442 31801 31803 28
25443 31801 31804 28
25444 31801 31805 28
25445 31806 31807 28
25446 31806 31808 28
25447 31806 31809 28
25448 31806 31810 28
25449 31811 31812 28
25450 31811 31813 28
25451 31811 31814 28
25452 31811 31815 28
25453 31816 31817 28
25454 31816 31818 28
25455 31816 31819 28
25456 31816 31820 28
25457 31821 31822 28
25458 31821 31823 28
25459 31821 31824 28
25460 31821 31825 28
25461 31826 31827 28
25462 31826 31828 28
25463 31826 31829 28
25464 31826 31830 28
25465 31831 31832 28
25466 31831 31833 28
25467 31831 31834 28
25468 31831 31835 28
25469 31836 31837 28
25470 31836 31838 28
25471 31836 31839 28
25472 31836 31840 28
25473 31841 31842 28
25474 31841 31843 28
25475 31841 31844 28
25476 31841 31845 28
25477 31846 31847 28
25478 31846 31848 28
25479 31846 31849 28
25480 31846 31850 28
25481 31851 31852 28
25482 31851 31853 28
25483 31851 31854 28
25484 31851 31855 28
25485 31856 31857 28
25486 31856 31858 28
25487 31856 31859 28
25488 31856 31860 28
25489 31861 31862 28
25490 31861 31863 28
25491 31861 31864 28
25492 31861 31865 28
25493 31866 31867 28
25494 31866 31868 28
25495 31866 31869 28
25496 31866 31870 28
25497 31871 31872 28
25498 31871 31873 28
25499 31871 31874 28
25500 31871 31875 28
25501 31876 31877 28
25502 31876 31878 28
25503 31876 31879 28
25504 31876 31880 28
25505 31881 31882 28
25506 31881 31883 28
25507 31881 31884 28
25508 31881 31885 28
25509 31886 31887 28
25510 31886 31888 28
25511 31886 31889 28
25512 31886 31890 28
25513 31891 31892 28
25514 31891 31893 28
25515 31891 31894 28
25516 31891 31895 28
25517 31896 31897 28
25518 31896 31898 28
25519 31896 31899 28
25520 31896 31900 28
25521 31901 31902 28
25522 31901 31903 28
25523 31901 31904 28
25524 31901 31905 28
25525 31906 31907 28
25526 31906 31908 28
25527 31906 31909 28
25528 31906 31910 28
25529 31911 31912 28
25530 31911 31913 28
25531 31911 31914 28
25532 31911 31915 28
25533 31916 31917 28
25534 31916 31918 28
25535 31916 31919 28
25536 31916 31920 28
25537 31921 31922 28
25538 31921 31923 28
25539 31921 31924 28
25540 31921 31925 28
25541 31926 31927 28
25542 31926 31928 28
25543 31926 31929 28
25544 31926 31930 28
25545 31931 31932 28
25546 31931 31933 28
25547 31931 31934 28
25548 31931 31935 28
25549 31936 31937 28
25550 31936 31938 28
25551 31936 31939 28
25552 31936 31940 28
25553 31941 31942 28
25554 31941 31943 28
25555 31941 31944 28
25556 31941 31945 28
25557 31946 31947 28
25558 31946 31948 28
25559 31946 31949 28
25560 31946 31950 28
25561 31951 31952 28
25562 31951 31953 28
25563 31951 31954 28
25564 31951 31955 28
25565 31956 31957 28
25566 31956 31958 28
25567 31956 31959 28
25568 31956 31960 28
25569 31961 31962 28
25570 31961 31963 28
25571 31961 31964 28
25572 31961 31965 28
25573 31966 31967 28
25574 31966 31968 28
25575 31966 31969 28
25576 31966 31970 28
25577 31971 31972 28
25578 31971 31973 28
25579 31971 31974 28
25580 31971 31975 28
25581 31976 31977 28
25582 31976 31978 28
25583 31976 31979 28
25584 31976 31980 28
25585 31981 31982 28
25586 31981 31983 28
25587 31981 31984 28
25588 31981 31985 28
25589 31986 31987 28
25590 31986 31988 28
25591 31986 31989 28
25592 31986 31990 28
25593 31991 31992 28
25594 31991 31993 28
25595 31991 31994 28
25596 31991 31995 28
25597 31996 31997 28
25598 31996 31998 28
25599 31996 31999 28
25600 31996 32000 28
25601 32001 32002 28
25602 32001 32003 28
25603 32001 32004 28
25604 32001 32005 28
25605 32006 32007 28
25606 32006 32008 28
25607 32006 32009 28
25608 32006 32010 28
25609 32011 32012 28
25610 32011 32013 28
25611 32011 32014 28
25612 32011 32015 28
25613 32016 32017 28
25614 32016 32018 28
25615 32016 32019 28
25616 32016 32020 28
25617 32021 32022 28
25618 32021 32023 28
25619 32021 32024 28
25620 32021 32025 28
25621 32026 32027 28
25622 32026 32028 28
25623 32026 32029 28
25624 32026 32030 28
25625 32031 32032 28
25626 32031 32033 28
25627 32031 32034 28
25628 32031 32035 28
25629 32036 32037 28
25630 32036 32038 28
25631 32036 32039 28
25632 32036 32040 28
25633 32041 32042 28
25634 32041 32043 28
25635 32041 32044 28
25636 32041 32045 28
25637 32046 32047 28
25638 32046 32048 28
25639 32046 32049 28
25640 32046 32050 28
25641 32051 32052 28
25642 32051 32053 28
25643 32051 32054 28
25644 32051 32055 28
25645 32056 32057 28
25646 32056 32058 28
25647 32056 32059 28
25648 32056 32060 28
25649 32061 32062 28
25650 32061 32063 28
25651 32061 32064 28
25652 32061 32065 28
25653 32066 32067 28
25654 32066 32068 28
25655 32066 32069 28
25656 32066 32070 28
25657 32071 32072 28
25658 32071 32073 28
25659 32071 32074 28
25660 32071 32075 28
25661 32076 32077 28
25662 32076 32078 28
25663 32076 32079 28
25664 32076 32080 28
25665 32081 32082 28
25666 32081 32083 28
25667 32081 32084 28
25668 32081 32085 28
25669 32086 32087 28
25670 32086 32088 28
25671 32086 32089 28
25672 32086 32090 28
25673 32091 32092 28
25674 32091 32093 28
25675 32091 32094 28
25676 32091 32095 28
25677 32096 32097 28
25678 32096 32098 28
25679 32096 32099 28
25680 32096 32100 28
25681 32101 32102 28
25682 32101 32103 28
25683 32101 32104 28
25684 32101 32105 28
25685 32106 32107 28
25686 32106 32108 28
25687 32106 32109 28
25688 32106 32110 28
25689 32111 32112 28
25690 32111 32113 28
25691 32111 32114 28
25692 32111 32115 28
25693 32116 32117 28
25694 32116 32118 28
25695 32116 32119 28
25696 32116 32120 28
25697 32121 32122 28
25698 32121 32123 28
25699 32121 32124 28
25700 32121 32125 28
25701 32126 32127 28
25702 32126 32128 28
25703 32126 32129 28
25704 32126 32130 28
25705 32131 32132 28
25706 32131 32133 28
25707 32131 32134 28
25708 32131 32135 28
25709 32136 32137 28
25710 32136 32138 28
25711 32136 32139 28
25712 32136 32140 28
25713 32141 32142 28
25714 32141 32143 28
25715 32141 32144 28
25716 32141 32145 28
25717 32146 32147 28
25718 32146 32148 28
25719 32146 32149 28
25720 32146 32150 28
25721 32151 32152 28
25722 32151 32153 28
25723 32151 32154 28
25724 32151 32155 28
25725 32156 32157 28
25726 32156 32158 28
25727 32156 32159 28
25728 32156 32160 28
25729 32161 32162 28
25730 32161 32163 28
25731 32161 32164 28
25732 32161 32165 28
25733 32166 32167 28
25734 32166 32168 28
25735 32166 32169 28
25736 32166 32170 28
25737 32171 32172 28
25738 32171 32173 28
25739 32171 32174 28
25740 32171 32175 28
25741 32176 32177 28
25742 32176 32178 28
25743 32176 32179 28
25744 32176 32180 28
25745 32181 32182 28
25746 32181 32183 28
25747 32181 32184 28
25748 32181 32185 28
25749 32186 32187 28
25750 32186 32188 28
25751 32186 32189 28
25752 32186 32190 28
25753 32191 32192 28
25754 32191 32193 28
25755 32191 32194 28
25756 32191 32195 28
25757 32196 32197 28
25758 32196 32198 28
25759 32196 32199 28
25760 32196 32200 28
25761 32201 32202 28
25762 32201 32203 28
25763 32201 32204 28
25764 32201 32205 28
25765 32206 32207 28
25766 32206 32208 28
25767 32206 32209 28
25768 32206 32210 28
25769 32211 32212 28
25770 32211 32213 28
25771 32211 32214 28
25772 32211 32215 28
25773 32216 32217 28
25774 32216 32218 28
25775 32216 32219 28
25776 32216 32220 28
25777 32221 32222 28
25778 32221 32223 28
25779 32221 32224 28
25780 32221 32225 28
25781 32226 32227 28
25782 32226 32228 28
25783 32226 32229 28
25784 32226 32230 28
25785 32231 32232 28
25786 32231 32233 28
25787 32231 32234 28
25788 32231 32235 28
25789 32236 32237 28
25790 32236 32238 28
25791 32236 32239 28
25792 32236 32240 28
25793 32241 32242 28
25794 32241 32243 28
25795 32241 32244 28
25796 32241 32245 28
25797 32246 32247 28
25798 32246 32248 28
25799 32246 32249 28
25800 32246 32250 28
25801 32251 32252 28
25802 32251 32253 28
25803 32251 32254 28
25804 32251 32255 28
25805 32256 32257 28
25806 32256 32258 28
25807 32256 32259 28
25808 32256 32260 28
25809 32261 32262 28
25810 32261 32263 28
25811 32261 32264 28
25812 32261 32265 28
25813 32266 32267 28
25814 32266 32268 28
25815 32266 32269 28
25816 32266 32270 28
25817 32271 32272 28
25818 32271 32273 28
25819 32271 32274 28
25820 32271 32275 28
25821 32276 32277 28
25822 32276 32278 28
25823 32276 32279 28
25824 32276 32280 28
25825 32281 32282 28
25826 32281 32283 28
25827 32281 32284 28
25828 32281 32285 28
25829 32286 32287 28
25830 32286 32288 28
25831 32286 32289 28
25832 32286 32290 28
25833 32291 32292 28
25834 32291 32293 28
25835 32291 32294 28
25836 32291 32295 28
25837 32296 32297 28
25838 32296 32298 28
25839 32296 32299 28
25840 32296 32300 28
25841 32301 32302 28
25842 32301 32303 28
25843 32301 32304 28
25844 32301 32305 28
25845 32306 32307 28
25846 32306 32308 28
25847 32306 32309 28
25848 32306 32310 28
25849 32311 32312 28
25850 32311 32313 28
25851 32311 32314 28
25852 32311 32315 28
25853 32316 32317 28
25854 32316 32318 28
25855 32316 32319 28
25856 32316 32320 28
25857 32321 32322 28
25858 32321 32323 28
25859 32321 32324 28
25860 32321 32325 28
25861 32326 32327 28
25862 32326 32328 28
25863 32326 32329 28
25864 32326 32330 28
25865 32331 32332 28
25866 32331 32333 28
25867 32331 32334 28
25868 32331 32335 28
25869 32336 32337 28
25870 32336 32338 28
25871 32336 32339 28
25872 32336 32340 28
25873 32341 32342 28
25874 32341 32343 28
25875 32341 32344 28
25876 32341 32345 28
25877 32346 32347 28
25878 32346 32348 28
25879 32346 32349 28
25880 32346 32350 28
25881 32351 32352 28
25882 32351 32353 28
25883 32351 32354 28
25884 32351 32355 28
25885 32356 32357 28
25886 32356 32358 28
25887 32356 32359 28
25888 32356 32360 28
25889 32361 32362 28
25890 32361 32363 28
25891 32361 32364 28
25892 32361 32365 28
25893 32366 32367 28
25894 32366 32368 28
25895 32366 32369 28
25896 32366 32370 28
25897 32371 32372 28
25898 32371 32373 28
25899 32371 32374 28
25900 32371 32375 28
25901 32376 32377 28
25902 32376 32378 28
25903 32376 32379 28
25904 32376 32380 28
25905 32381 32382 28
25906 32381 32383 28
25907 32381 32384 28
25908 32381 32385 28
25909 32386 32387 28
25910 32386 32388 28
25911 32386 32389 28
25912 32386 32390 28
25913 32391 32392 28
25914 32391 32393 28
25915 32391 32394 28
25916 32391 32395 28
25917 32396 32397 28
25918 32396 32398 28
25919 32396 32399 28
25920 32396 32400 28
25921 32401 32402 28
25922 32401 32403 28
25923 32401 32404 28
25924 32401 32405 28
25925 32406 32407 28
25926 32406 32408 28
25927 32406 32409 28
25928 32406 32410 28
25929 32411 32412 28
25930 32411 32413 28
25931 32411 32414 28
25932 32411 32415 28
25933 32416 32417 28
25934 32416 32418 28
25935 32416 32419 28
25936 32416 32420 28
25937 32421 32422 28
25938 32421 32423 28
25939 32421 32424 28
25940 32421 32425 28
25941 32426 32427 28
25942 32426 32428 28
25943 32426 32429 28
25944 32426 32430 28
25945 32431 32432 28
25946 32431 32433 28
25947 32431 32434 28
25948 32431 32435 28
25949 32436 32437 28
25950 32436 32438 28
25951 32436 32439 28
25952 32436 32440 28
25953 32441 32442 28
25954 32441 32443 28
25955 32441 32444 28
25956 32441 32445 28
25957 32446 32447 28
25958 32446 32448 28
25959 32446 32449 28
25960 32446 32450 28
25961 32451 32452 28
25962 32451 32453 28
25963 32451 32454 28
25964 32451 32455 28
25965 32456 32457 28
25966 32456 32458 28
25967 32456 32459 28
25968 32456 32460 28
25969 32461 32462 28
25970 32461 32463 28
25971 32461 32464 28
25972 32461 32465 28
25973 32466 32467 28
25974 32466 32468 28
25975 32466 32469 28
25976 32466 32470 28
25977 32471 32472 28
25978 32471 32473 28
25979 32471 32474 28
25980 32471 32475 28
25981 32476 32477 28
25982 32476 32478 28
25983 32476 32479 28
25984 32476 32480 28
25985 32481 32482 28
25986 32481 32483 28
25987 32481 32484 28
25988 32481 32485 28
25989 32486 32487 28
25990 32486 32488 28
25991 32486 32489 28
25992 32486 32490 28
25993 32491 32492 28
25994 32491 32493 28
25995 32491 32494 28
25996 32491 32495 28
25997 32496 32497 28
25998 32496 32498 28
25999 32496 32499 28
26000 32496 32500 28
26001 32501 32502 28
26002 32501 32503 28
26003 32501 32504 28
26004 32501 32505 28
26005 32506 32507 28
26006 32506 32508 28
26007 32506 32509 28
26008 32506 32510 28
26009 32511 32512 28
26010 32511 32513 28
26011 32511 32514 28
26012 32511 32515 28
26013 32516 32517 28
26014 32516 32518 28
26015 32516 32519 28
26016 32516 32520 28
26017 32521 32522 28
26018 32521 32523 28
26019 32521 32524 28
26020 32521 32525 28
26021 32526 32527 28
26022 32526 32528 28
26023 32526 32529 28
26024 32526 32530 28
26025 32531 32532 28
26026 32531 32533 28
26027 32531 32534 28
26028 32531 32535 28
26029 32536 32537 28
26030 32536 32538 28
26031 32536 32539 28
26032 32536 32540 28
26033 32541 32542 28
26034 32541 32543 28
26035 32541 32544 28
26036 32541 32545 28
26037 32546 32547 28
26038 32546 32548 28
26039 32546 32549 28
26040 32546 32550 28
26041 32551 32552 28
26042 32551 32553 28
26043 32551 32554 28
26044 32551 32555 28
26045 32556 32557 28
26046 32556 32558 28
26047 32556 32559 28
26048 32556 32560 28
26049 32561 32562 28
26050 32561 32563 28
26051 32561 32564 28
26052 32561 32565 28
26053 32566 32567 28
26054 32566 32568 28
26055 32566 32569 28
26056 32566 32570 28
26057 32571 32572 28
26058 32571 32573 28
26059 32571 32574 28
26060 32571 32575 28
26061 32576 32577 28
26062 32576 32578 28
26063 32576 32579 28
26064 32576 32580 28
26065 32581 32582 28
26066 32581 32583 28
26067 32581 32584 28
26068 32581 32585 28
26069 32586 32587 28
26070 32586 32588 28
26071 32586 32589 28
26072 32586 32590 28
26073 32591 32592 28
26074 32591 32593 28
26075 32591 32594 28
26076 32591 32595 28
26077 32596 32597 28
26078 32596 32598 28
26079 32596 32599 28
26080 32596 32600 28
26081 32601 32602 28
26082 32601 32603 28
26083 32601 32604 28
26084 32601 32605 28
26085 32606 32607 28
26086 32606 32608 28
26087 32606 32609 28
26088 32606 32610 28
26089 32611 32612 28
26090 32611 32613 28
26091 32611 32614 28
26092 32611 32615 28
26093 32616 32617 28
26094 32616 32618 28
26095 32616 32619 28
26096 32616 32620 28
26097 32621 32622 28
26098 32621 32623 28
26099 32621 32624 28
26100 32621 32625 28
26101 32626 32627 28
26102 32626 32628 28
26103 32626 32629 28
26104 32626 32630 28
26105 32631 32632 28
26106 32631 32633 28
26107 32631 32634 28
26108 32631 32635 28
26109 32636 32637 28
26110 32636 32638 28
26111 32636 32639 28
26112 32636 32640 28
26113 32641 32642 28
26114 32641 32643 28
26115 32641 32644 28
26116 32641 32645 28
26117 32646 32647 28
26118 32646 32648 28
26119 32646 32649 28
26120 32646 32650 28
26121 32651 32652 28
26122 32651 32653 28
26123 32651 32654 28
26124 32651 32655 28
26125 32656 32657 28
26126 32656 32658 28
26127 32656 32659 28
26128 32656 32660 28
26129 32661 32662 28
26130 32661 32663 28
26131 32661 32664 28
26132 32661 32665 28
26133 32666 32667 28
26134 32666 32668 28
26135 32666 32669 28
26136 32666 32670 28
26137 32671 32672 28
26138 32671 32673 28
26139 32671 32674 28
26140 32671 32675 28
26141 32676 32677 28
26142 32676 32678 28
26143 32676 32679 28
26144 32676 32680 28
26145 32681 32682 28
26146 32681 32683 28
26147 32681 32684 28
26148 32681 32685 28
26149 32686 32687 28
26150 32686 32688 28
26151 32686 32689 28
26152 32686 32690 28
26153 32691 32692 28
26154 32691 32693 28
26155 32691 32694 28
26156 32691 32695 28
26157 32696 32697 28
26158 32696 32698 28
26159 32696 32699 28
26160 32696 32700 28
26161 32701 32702 28
26162 32701 32703 28
26163 32701 32704 28
26164 32701 32705 28
26165 32706 32707 28
26166 32706 32708 28
26167 32706 32709 28
26168 32706 32710 28
26169 32711 32712 28
26170 32711 32713 28
26171 32711 32714 28
26172 32711 32715 28
26173 32716 32717 28
26174 32716 32718 28
26175 32716 32719 28
26176 32716 32720 28
26177 32721 32722 28
26178 32721 32723 28
26179 32721 32724 28
26180 32721 32725 28
26181 32726 32727 28
26182 32726 32728 28
26183 32726 32729 28
26184 32726 32730 28
26185 32731 32732 28
26186 32731 32733 28
26187 32731 32734 28
26188 32731 32735 28
26189 32736 32737 28
26190 32736 32738 28
26191 32736 32739 28
26192 32736 32740 28
26193 32741 32742 28
26194 32741 32743 28
26195 32741 32744 28
26196 32741 32745 28
26197 32746 32747 28
26198 32746 32748 28
26199 32746 32749 28
26200 32746 32750 28
26201 32751 32752 28
26202 32751 32753 28
26203 32751 32754 28
26204 32751 32755 28
26205 32756 32757 28
26206 32756 32758 28
26207 32756 32759 28
26208 32756 32760 28
26209 32761 32762 28
26210 32761 32763 28
26211 32761 32764 28
26212 32761 32765 28
26213 32766 32767 28
26214 32766 32768 28
26215 32766 32769 28
26216 32766 32770 28
26217 32771 32772 28
26218 32771 32773 28
26219 32771 32774 28
26220 32771 32775 28
26221 32776 32777 28
26222 32776 32778 28
26223 32776 32779 28
26224 32776 32780 28
26225 32781 32782 28
26226 32781 32783 28
26227 32781 32784 28
26228 32781 32785 28
26229 32786 32787 28
26230 32786 32788 28
26231 32786 32789 28
26232 32786 32790 28
26233 32791 32792 28
26234 32791 32793 28
26235 32791 32794 28
26236 32791 32795 28
26237 32796 32797 28
26238 32796 32798 28
26239 32796 32799 28
26240 32796 32800 28
26241 32801 32802 28
26242 32801 32803 28
26243 32801 32804 28
26244 32801 32805 28
26245 32806 32807 28
26246 32806 32808 28
26247 32806 32809 28
26248 32806 32810 28
26249 32811 32812 28
26250 32811 32813 28
26251 32811 32814 28
26252 32811 32815 28
26253 32816 32817 28
26254 32816 32818 28
26255 32816 32819 28
26256 32816 32820 28
26257 32821 32822 28
26258 32821 32823 28
26259 32821 32824 28
26260 32821 32825 28
26261 32826 32827 28
26262 32826 32828 28
26263 32826 32829 28
26264 32826 32830 28
26265 32831 32832 28
26266 32831 32833 28
26267 32831 32834 28
26268 32831 32835 28
26269 32836 32837 28
26270 32836 32838 28
26271 32836 32839 28
26272 32836 32840 28
26273 32841 32842 28
26274 32841 32843 28
26275 32841 32844 28
26276 32841 32845 28
26277 32846 32847 28
26278 32846 32848 28
26279 32846 32849 28
26280 32846 32850 28
26281 32851 32852 28
26282 32851 32853 28
26283 32851 32854 28
26284 32851 32855 28
26285 32856 32857 28
26286 32856 32858 28
26287 32856 32859 28
26288 32856 32860 28
26289 32861 32862 28
26290 32861 32863 28
26291 32861 32864 28
26292 32861 32865 28
26293 32866 32867 28
26294 32866 32868 28
26295 32866 32869 28
26296 32866 32870 28
26297 32871 32872 28
26298 32871 32873 28
26299 32871 32874 28
26300 32871 32875 28
26301 32876 32877 28
26302 32876 32878 28
26303 32876 32879 28
26304 32876 32880 28
26305 32881 32882 28
26306 32881 32883 28
26307 32881 32884 28
26308 32881 32885 28
26309 32886 32887 28
26310 32886 32888 28
26311 32886 32889 28
26312 32886 32890 28
26313 32891 32892 28
26314 32891 32893 28
26315 32891 32894 28
26316 32891 32895 28
26317 32896 32897 28
26318 32896 32898 28
26319 32896 32899 28
26320 32896 32900 28
26321 32901 32902 28
26322 32901 32903 28
26323 32901 32904 28
26324 32901 32905 28
26325 32906 32907 28
26326 32906 32908 28
26327 32906 32909 28
26328 32906 32910 28
26329 32911 32912 28
26330 32911 32913 28
26331 32911 32914 28
26332 32911 32915 28
26333 32916 32917 28
26334 32916 32918 28
26335 32916 32919 28
26336 32916 32920 28
26337 32921 32922 28
26338 32921 32923 28
26339 32921 32924 28
26340 32921 32925 28
26341 32926 32927 28
26342 32926 32928 28
26343 32926 32929 28
26344 32926 32930 28
26345 32931 32932 28
26346 32931 32933 28
26347 32931 32934 28
26348 32931 32935 28
26349 32936 32937 28
26350 32936 32938 28
26351 32936 32939 28
26352 32936 32940 28
26353 32941 32942 28
26354 32941 32943 28
26355 32941 32944 28
26356 32941 32945 28
26357 32946 32947 28
26358 32946 32948 28
26359 32946 32949 28
26360 32946 32950 28
26361 32951 32952 28
26362 32951 32953 28
26363 32951 32954 28
26364 32951 32955 28
26365 32956 32957 28
26366 32956 32958 28
26367 32956 32959 28
26368 32956 32960 28
26369 32961 32962 28
26370 32961 32963 28
26371 32961 32964 28
26372 32961 32965 28
26373 32966 32967 28
26374 32966 32968 28
26375 32966 32969 28
26376 32966 32970 28
26377 32971 32972 28
26378 32971 32973 28
26379 32971 32974 28
26380 32971 32975 28
26381 32976 32977 28
26382 32976 32978 28
26383 32976 32979 28
26384 32976 32980 28
26385 32981 32982 28
26386 32981 32983 28
26387 32981 32984 28
26388 32981 32985 28
26389 32986 32987 28
26390 32986 32988 28
26391 32986 32989 28
26392 32986 32990 28
26393 32991 32992 28
26394 32991 32993 28
26395 32991 32994 28
26396 32991 32995 28
26397 32996 32997 28
26398 32996 32998 28
26399 32996 32999 28
26400 32996 33000 28
26401 33001 33002 28
26402 33001 33003 28
26403 33001 33004 28
26404 33001 33005 28
26405 33006 33007 28
26406 33006 33008 28
26407 33006 33009 28
26408 33006 33010 28
26409 33011 33012 28
26410 33011 33013 28
26411 33011 33014 28
26412 33011 33015 28
26413 33016 33017 28
26414 33016 33018 28
26415 33016 33019 28
26416 33016 33020 28
26417 33021 33022 28
26418 33021 33023 28
26419 33021 33024 28
26420 33021 33025 28
26421 33026 33027 28
26422 33026 33028 28
26423 33026 33029 28
26424 33026 33030 28
26425 33031 33032 28
26426 33031 33033 28
26427 33031 33034 28
26428 33031 33035 28
26429 33036 33037 28
26430 33036 33038 28
26431 33036 33039 28
26432 33036 33040 28
26433 33041 33042 28
26434 33041 33043 28
26435 33041 33044 28
26436 33041 33045 28
26437 33046 33047 28
26438 33046 33048 28
26439 33046 33049 28
26440 33046 33050 28
26441 33051 33052 28
26442 33051 33053 28
26443 33051 33054 28
26444 33051 33055 28
26445 33056 33057 28
26446 33056 33058 28
26447 33056 33059 28
26448 33056 33060 28
26449 33061 33062 28
26450 33061 33063 28
26451 33061 33064 28
26452 33061 33065 28
26453 33066 33067 28
26454 33066 33068 28
26455 33066 33069 28
26456 33066 33070 28
26457 33071 33072 28
26458 33071 33073 28
26459 33071 33074 28
26460 33071 33075 28
26461 33076 33077 28
26462 33076 33078 28
26463 33076 33079 28
26464 33076 33080 28
26465 33081 33082 28
26466 33081 33083 28
26467 33081 33084 28
26468 33081 33085 28
26469 33086 33087 28
26470 33086 33088 28
26471 33086 33089 28
26472 33086 33090 28
26473 33091 33092 28
26474 33091 33093 28
26475 33091 33094 28
26476 33091 33095 28
26477 33096 33097 28
26478 33096 33098 28
26479 33096 33099 28
26480 33096 33100 28
26481 33101 33102 28
26482 33101 33103 28
26483 33101 33104 28
26484 33101 33105 28
26485 33106 33107 28
26486 33106 33108 28
26487 33106 33109 28
26488 33106 33110 28
26489 33111 33112 28
26490 33111 33113 28
26491 33111 33114 28
26492 33111 33115 28
26493 33116 33117 28
26494 33116 33118 28
26495 33116 33119 28
26496 33116 33120 28
26497 33121 33122 28
26498 33121 33123 28
26499 33121 33124 28
26500 33121 33125 28
26501 33126 33127 28
26502 33126 33128 28
26503 33126 33129 28
26504 33126 33130 28
26505 33131 33132 28
26506 33131 33133 28
26507 33131 33134 28
26508 33131 33135 28
26509 33136 33137 28
26510 33136 33138 28
26511 33136 33139 28
26512 33136 33140 28
26513 33141 33142 28
26514 33141 33143 28
26515 33141 33144 28
26516 33141 33145 28
26517 33146 33147 28
26518 33146 33148 28
26519 33146 33149 28
26520 33146 33150 28
26521 33151 33152 28
26522 33151 33153 28
26523 33151 33154 28
26524 33151 33155 28
26525 33156 33157 28
26526 33156 33158 28
26527 33156 33159 28
26528 33156 33160 28
26529 33161 33162 28
26530 33161 33163 28
26531 33161 33164 28
26532 33161 33165 28
26533 33166 33167 28
26534 33166 33168 28
26535 33166 33169 28
26536 33166 33170 28
26537 33171 33172 28
26538 33171 33173 28
26539 33171 33174 28
26540 33171 33175 28
26541 33176 33177 28
26542 33176 33178 28
26543 33176 33179 28
26544 33176 33180 28
26545 33181 33182 28
26546 33181 33183 28
26547 33181 33184 28
26548 33181 33185 28
26549 33186 33187 28
26550 33186 33188 28
26551 33186 33189 28
26552 33186 33190 28
26553 33191 33192 28
26554 33191 33193 28
26555 33191 33194 28
26556 33191 33195 28
26557 33196 33197 28
26558 33196 33198 28
26559 33196 33199 28
26560 33196 33200 28
26561 33201 33202 28
26562 33201 33203 28
26563 33201 33204 28
26564 33201 33205 28
26565 33206 33207 28
26566 33206 33208 28
26567 33206 33209 28
26568 33206 33210 28
26569 33211 33212 28
26570 33211 33213 28
26571 33211 33214 28
26572 33211 33215 28
26573 33216 33217 28
26574 33216 33218 28
26575 33216 33219 28
26576 33216 33220 28
26577 33221 33222 28
26578 33221 33223 28
26579 33221 33224 28
26580 33221 33225 28
26581 33226 33227 28
26582 33226 33228 28
26583 33226 33229 28
26584 33226 33230 28
26585 33231 33232 28
26586 33231 33233 28
26587 33231 33234 28
26588 33231 33235 28
26589 33236 33237 28
26590 33236 33238 28
26591 33236 33239 28
26592 33236 33240 28
26593 33241 33242 28
26594 33241 33243 28
26595 33241 33244 28
26596 33241 33245 28
26597 33246 33247 28
26598 33246 33248 28
26599 33246 33249 28
26600 33246 33250 28
26601 33251 33252 28
26602 33251 33253 28
26603 33251 33254 28
26604 33251 33255 28
26605 33256 33257 28
26606 33256 33258 28
26607 33256 33259 28
26608 33256 33260 28
26609 33261 33262 28
26610 33261 33263 28
26611 33261 33264 28
26612 33261 33265 28
26613 33266 33267 28
26614 33266 33268 28
26615 33266 33269 28
26616 33266 33270 28
26617 33271 33272 28
26618 33271 33273 28
26619 33271 33274 28
26620 33271 33275 28
26621 33276 33277 28
26622 33276 33278 28
26623 33276 33279 28
26624 33276 33280 28
26625 33281 33282 28
26626 33281 33283 28
26627 33281 33284 28
26628 33281 33285 28
26629 33286 33287 28
26630 33286 33288 28
26631 33286 33289 28
26632 33286 33290 28
26633 33291 33292 28
26634 33291 33293 28
26635 33291 33294 28
26636 33291 33295 28
26637 33296 33297 28
26638 33296 33298 28
26639 33296 33299 28
26640 33296 33300 28
26641 33301 33302 28
26642 33301 33303 28
26643 33301 33304 28
26644 33301 33305 28
26645 33306 33307 28
26646 33306 33308 28
26647 33306 33309 28
26648 33306 33310 28
26649 33311 33312 28
26650 33311 33313 28
26651 33311 33314 28
26652 33311 33315 28
26653 33316 33317 28
26654 33316 33318 28
26655 33316 33319 28
26656 33316 33320 28
26657 33321 33322 28
26658 33321 33323 28
26659 33321 33324 28
26660 33321 33325 28
26661 33326 33327 28
26662 33326 33328 28
26663 33326 33329 28
26664 33326 33330 28
26665 33331 33332 28
26666 33331 33333 28
26667 33331 33334 28
26668 33331 33335 28
26669 33336 33337 28
26670 33336 33338 28
26671 33336 33339 28
26672 33336 33340 28
26673 33341 33342 28
26674 33341 33343 28
26675 33341 33344 28
26676 33341 33345 28
26677 33346 33347 28
26678 33346 33348 28
26679 33346 33349 28
26680 33346 33350 28
26681 33351 33352 28
26682 33351 33353 28
26683 33351 33354 28
26684 33351 33355 28
26685 33356 33357 28
26686 33356 33358 28
26687 33356 33359 28
26688 33356 33360 28
26689 33361 33362 28
26690 33361 33363 28
26691 33361 33364 28
26692 33361 33365 28
26693 33366 33367 28
26694 33366 33368 28
26695 33366 33369 28
26696 33366 33370 28
26697 33371 33372 28
26698 33371 33373 28
26699 33371 33374 28
26700 33371 33375 28
26701 33376 33377 28
26702 33376 33378 28
26703 33376 33379 28
26704 33376 33380 28
26705 33381 33382 28
26706 33381 33383 28
26707 33381 33384 28
26708 33381 33385 28
26709 33386 33387 28
26710 33386 33388 28
26711 33386 33389 28
26712 33386 33390 28
26713 33391 33392 28
26714 33391 33393 28
26715 33391 33394 28
26716 33391 33395 28
26717 33396 33397 28
26718 33396 33398 28
26719 33396 33399 28
26720 33396 33400 28
26721 33401 33402 28
26722 33401 33403 28
26723 33401 33404 28
26724 33401 33405 28
26725 33406 33407 28
26726 33406 33408 28
26727 33406 33409 28
26728 33406 33410 28
26729 33411 33412 28
26730 33411 33413 28
26731 33411 33414 28
26732 33411 33415 28
26733 33416 33417 28
26734 33416 33418 28
26735 33416 33419 28
26736 33416 33420 28
26737 33421 33422 28
26738 33421 33423 28
26739 33421 33424 28
26740 33421 33425 28
26741 33426 33427 28
26742 33426 33428 28
26743 33426 33429 28
26744 33426 33430 28
26745 33431 33432 28
26746 33431 33433 28
26747 33431 33434 28
26748 33431 33435 28
26749 33436 33437 28
26750 33436 33438 28
26751 33436 33439 28
26752 33436 33440 28
26753 33441 33442 28
26754 33441 33443 28
26755 33441 33444 28
26756 33441 33445 28
26757 33446 33447 28
26758 33446 33448 28
26759 33446 33449 28
26760 33446 33450 28
26761 33451 33452 28
26762 33451 33453 28
26763 33451 33454 28
26764 33451 33455 28
26765 33456 33457 28
26766 33456 33458 28
26767 33456 33459 28
26768 33456 33460 28
26769 33461 33462 28
26770 33461 33463 28
26771 33461 33464 28
26772 33461 33465 28
26773 33466 33467 28
26774 33466 33468 28
26775 33466 33469 28
26776 33466 33470 28
26777 33471 33472 28
26778 33471 33473 28
26779 33471 33474 28
26780 33471 33475 28
26781 33476 33477 28
26782 33476 33478 28
26783 33476 33479 28
26784 33476 33480 28
26785 33481 33482 28
26786 33481 33483 28
26787 33481 33484 28
26788 33481 33485 28
26789 33486 33487 28
26790 33486 33488 28
26791 33486 33489 28
26792 33486 33490 28
26793 33491 33492 28
26794 33491 33493 28
26795 33491 33494 28
26796 33491 33495 28
26797 33496 33497 28
26798 33496 33498 28
26799 33496 33499 28
26800 33496 33500 28
26801 33501 33502 28
26802 33501 33503 28
26803 33501 33504 28
26804 33501 33505 28
26805 33506 33507 28
26806 33506 33508 28
26807 33506 33509 28
26808 33506 33510 28
26809 33511 33512 28
26810 33511 33513 28
26811 33511 33514 28
26812 33511 33515 28
26813 33516 33517 28
26814 33516 33518 28
26815 33516 33519 28
26816 33516 33520 28
26817 33521 33522 28
26818 33521 33523 28
26819 33521 33524 28
26820 33521 33525 28
26821 33526 33527 28
26822 33526 33528 28
26823 33526 33529 28
26824 33526 33530 28
26825 33531 33532 28
26826 33531 33533 28
26827 33531 33534 28
26828 33531 33535 28
26829 33536 33537 28
26830 33536 33538 28
26831 33536 33539 28
26832 33536 33540 28
26833 33541 33542 28
26834 33541 33543 28
26835 33541 33544 28
26836 33541 33545 28
26837 33546 33547 28
26838 33546 33548 28
26839 33546 33549 28
26840 33546 33550 28
26841 33551 33552 28
26842 33551 33553 28
26843 33551 33554 28
26844 33551 33555 28
26845 33556 33557 28
26846 33556 33558 28
26847 33556 33559 28
26848 33556 33560 28
26849 33561 33562 28
26850 33561 33563 28
26851 33561 33564 28
26852 33561 33565 28
26853 33566 33567 28
26854 33566 33568 28
26855 33566 33569 28
26856 33566 33570 28
26857 33571 33572 28
26858 33571 33573 28
26859 33571 33574 28
26860 33571 33575 28
26861 33576 33577 28
26862 33576 33578 28
26863 33576 33579 28
26864 33576 33580 28
26865 33581 33582 28
26866 33581 33583 28
26867 33581 33584 28
26868 33581 33585 28
26869 33586 33587 28
26870 33586 33588 28
26871 33586 33589 28
26872 33586 33590 28
26873 33591 33592 28
26874 33591 33593 28
26875 33591 33594 28
26876 33591 33595 28
26877 33596 33597 28
26878 33596 33598 28
26879 33596 33599 28
26880 33596 33600 28
26881 33601 33602 28
26882 33601 33603 28
26883 33601 33604 28
26884 33601 33605 28
26885 33606 33607 28
26886 33606 33608 28
26887 33606 33609 28
26888 33606 33610 28
26889 33611 33612 28
26890 33611 33613 28
26891 33611 33614 28
26892 33611 33615 28
26893 33616 33617 28
26894 33616 33618 28
26895 33616 33619 28
26896 33616 33620 28
26897 33621 33622 28
26898 33621 33623 28
26899 33621 33624 28
26900 33621 33625 28
26901 33626 33627 28
26902 33626 33628 28
26903 33626 33629 28
26904 33626 33630 28
26905 33631 33632 28
26906 33631 33633 28
26907 33631 33634 28
26908 33631 33635 28
26909 33636 33637 28
26910 33636 33638 28
26911 33636 33639 28
26912 33636 33640 28
26913 33641 33642 28
26914 33641 33643 28
26915 33641 33644 28
26916 33641 33645 28
26917 33646 33647 28
26918 33646 33648 28
26919 33646 33649 28
26920 33646 33650 28
26921 33651 33652 28
26922 33651 33653 28
26923 33651 33654 28
26924 33651 33655 28
26925 33656 33657 28
26926 33656 33658 28
26927 33656 33659 28
26928 33656 33660 28
26929 33661 33662 28
26930 33661 33663 28
26931 33661 33664 28
26932 33661 33665 28
26933 33666 33667 28
26934 33666 33668 28
26935 33666 33669 28
26936 33666 33670 28
26937 33671 33672 28
26938 33671 33673 28
26939 33671 33674 28
26940 33671 33675 28
26941 33676 33677 28
26942 33676 33678 28
26943 33676 33679 28
26944 33676 33680 28
26945 33681 33682 28
26946 33681 33683 28
26947 33681 33684 28
26948 33681 33685 28
26949 33686 33687 28
26950 33686 33688 28
26951 33686 33689 28
26952 33686 33690 28
26953 33691 33692 28
26954 33691 33693 28
26955 33691 33694 28
26956 33691 33695 28
26957 33696 33697 28
26958 33696 33698 28
26959 33696 33699 28
26960 33696 33700 28
26961 33701 33702 28
26962 33701 33703 28
26963 33701 33704 28
26964 33701 33705 28
26965 33706 33707 28
26966 33706 33708 28
26967 33706 33709 28
26968 33706 33710 28
26969 33711 33712 28
26970 33711 33713 28
26971 33711 33714 28
26972 33711 33715 28
26973 33716 33717 28
26974 33716 33718 28
26975 33716 33719 28
26976 33716 33720 28
26977 33721 33722 28
26978 33721 33723 28
26979 33721 33724 28
26980 33721 33725 28
26981 33726 33727 28
26982 33726 33728 28
26983 33726 33729 28
26984 33726 33730 28
26985 33731 33732 28
26986 33731 33733 28
26987 33731 33734 28
26988 33731 33735 28
26989 33736 33737 28
26990 33736 33738 28
26991 33736 33739 28
26992 33736 33740 28
26993 33741 33742 28
26994 33741 33743 28
26995 33741 33744 28
26996 33741 33745 28
26997 33746 33747 28
26998 33746 33748 28
26999 33746 33749 28
27000 33746 33750 28
27001 33751 33752 28
27002 33751 33753 28
27003 33751 33754 28
27004 33751 33755 28
27005 33756 33757 28
27006 33756 33758 28
27007 33756 33759 28
27008 33756 33760 28
27009 33761 33762 28
27010 33761 33763 28
27011 33761 33764 28
27012 33761 33765 28
27013 33766 33767 28
27014 33766 33768 28
27015 33766 33769 28
27016 33766 33770 28
27017 33771 33772 28
27018 33771 33773 28
27019 33771 33774 28
27020 33771 33775 28
27021 33776 33777 28
27022 33776 33778 28
27023 33776 33779 28
27024 33776 33780 28
27025 33781 33782 28
27026 33781 33783 28
27027 33781 33784 28
27028 33781 33785 28
27029 33786 33787 28
27030 33786 33788 28
27031 33786 33789 28
27032 33786 33790 28
27033 33791 33792 28
27034 33791 33793 28
27035 33791 33794 28
27036 33791 33795 28
27037 33796 33797 28
27038 33796 33798 28
27039 33796 33799 28
27040 33796 33800 28
27041 33801 33802 28
27042 33801 33803 28
27043 33801 33804 28
27044 33801 33805 28
27045 33806 33807 28
27046 33806 33808 28
27047 33806 33809 28
27048 33806 33810 28
27049 33811 33812 28
27050 33811 33813 28
27051 33811 33814 28
27052 33811 33815 28
27053 33816 33817 28
27054 33816 33818 28
27055 33816 33819 28
27056 33816 33820 28
27057 33821 33822 28
27058 33821 33823 28
27059 33821 33824 28
27060 33821 33825 28
27061 33826 33827 28
27062 33826 33828 28
27063 33826 33829 28
27064 33826 33830 28
27065 33831 33832 28
27066 33831 33833 28
27067 33831 33834 28
27068 33831 33835 28
27069 33836 33837 28
27070 33836 33838 28
27071 33836 33839 28
27072 33836 33840 28
27073 33841 33842 28
27074 33841 33843 28
27075 33841 33844 28
27076 33841 33845 28
27077 33846 33847 28
27078 33846 33848 28
27079 33846 33849 28
27080 33846 33850 28
27081 33851 33852 28
27082 33851 33853 28
27083 33851 33854 28
27084 33851 33855 28
27085 33856 33857 28
27086 33856 33858 28
27087 33856 33859 28
27088 33856 33860 28
27089 33861 33862 28
27090 33861 33863 28
27091 33861 33864 28
27092 33861 33865 28
27093 33866 33867 28
27094 33866 33868 28
27095 33866 33869 28
27096 33866 33870 28
27097 33871 33872 28
27098 33871 33873 28
27099 33871 33874 28
27100 33871 33875 28
27101 33876 33877 28
27102 33876 33878 28
27103 33876 33879 28
27104 33876 33880 28
27105 33881 33882 28
27106 33881 33883 28
27107 33881 33884 28
27108 33881 33885 28
27109 33886 33887 28
27110 33886 33888 28
27111 33886 33889 28
27112 33886 33890 28
27113 33891 33892 28
27114 33891 33893 28
27115 33891 33894 28
27116 33891 33895 28
27117 33896 33897 28
27118 33896 33898 28
27119 33896 33899 28
27120 33896 33900 28
27121 33901 33902 28
27122 33901 33903 28
27123 33901 33904 28
27124 33901 33905 28
27125 33906 33907 28
27126 33906 33908 28
27127 33906 33909 28
27128 33906 33910 28
27129 33911 33912 28
27130 33911 33913 28
27131 33911 33914 28
27132 33911 33915 28
27133 33916 33917 28
27134 33916 33918 28
27135 33916 33919 28
27136 33916 33920 28
27137 33921 33922 28
27138 33921 33923 28
27139 33921 33924 28
27140 33921 33925 28
27141 33926 33927 28
27142 33926 33928 28
27143 33926 33929 28
27144 33926 33930 28
27145 33931 33932 28
27146 33931 33933 28
27147 33931 33934 28
27148 33931 33935 28
27149 33936 33937 28
27150 33936 33938 28
27151 33936 33939 28
27152 33936 33940 28
27153 33941 33942 28
27154 33941 33943 28
27155 33941 33944 28
27156 33941 33945 28
27157 33946 33947 28
27158 33946 33948 28
27159 33946 33949 28
27160 33946 33950 28
27161 33951 33952 28
27162 33951 33953 28
27163 33951 33954 28
27164 33951 33955 28
27165 33956 33957 28
27166 33956 33958 28
27167 33956 33959 28
27168 33956 33960 28
27169 33961 33962 28
27170 33961 33963 28
27171 33961 33964 28
27172 33961 33965 28
27173 33966 33967 28
27174 33966 33968 28
27175 33966 33969 28
27176 33966 33970 28
27177 33971 33972 28
27178 33971 33973 28
27179 33971 33974 28
27180 33971 33975 28
27181 33976 33977 28
27182 33976 33978 28
27183 33976 33979 28
27184 33976 33980 28
27185 33981 33982 28
27186 33981 33983 28
27187 33981 33984 28
27188 33981 33985 28
27189 33986 33987 28
27190 33986 33988 28
27191 33986 33989 28
27192 33986 33990 28
27193 33991 33992 28
27194 33991 33993 28
27195 33991 33994 28
27196 33991 33995 28
27197 33996 33997 28
27198 33996 33998 28
27199 33996 33999 28
27200 33996 34000 28
27201 34001 34002 28
27202 34001 34003 28
27203 34001 34004 28
27204 34001 34005 28
27205 34006 34007 28
27206 34006 34008 28
27207 34006 34009 28
27208 34006 34010 28
27209 34011 34012 28
27210 34011 34013 28
27211 34011 34014 28
27212 34011 34015 28
27213 34016 34017 28
27214 34016 34018 28
27215 34016 34019 28
27216 34016 34020 28
27217 34021 34022 28
27218 34021 34023 28
27219 34021 34024 28
27220 34021 34025 28
27221 34026 34027 28
27222 34026 34028 28
27223 34026 34029 28
27224 34026 34030 28
27225 34031 34032 28
27226 34031 34033 28
27227 34031 34034 28
27228 34031 34035 28
27229 34036 34037 28
27230 34036 34038 28
27231 34036 34039 28
27232 34036 34040 28
27233 34041 34042 28
27234 34041 34043 28
27235 34041 34044 28
27236 34041 34045 28
27237 34046 34047 28
27238 34046 34048 28
27239 34046 34049 28
27240 34046 34050 28
27241 34051 34052 28
27242 34051 34053 28
27243 34051 34054 28
27244 34051 34055 28
27245 34056 34057 28
27246 34056 34058 28
27247 34056 34059 28
27248 34056 34060 28
27249 34061 34062 28
27250 34061 34063 28
27251 34061 34064 28
27252 34061 34065 28
27253 34066 34067 28
27254 34066 34068 28
27255 34066 34069 28
27256 34066 34070 28
27257 34071 34072 28
27258 34071 34073 28
27259 34071 34074 28
27260 34071 34075 28
27261 34076 34077 28
27262 34076 34078 28
27263 34076 34079 28
27264 34076 34080 28
27265 34081 34082 28
27266 34081 34083 28
27267 34081 34084 28
27268 34081 34085 28
27269 34086 34087 28
27270 34086 34088 28
27271 34086 34089 28
27272 34086 34090 28
27273 34091 34092 28
27274 34091 34093 28
27275 34091 34094 28
27276 34091 34095 28
27277 34096 34097 28
27278 34096 34098 28
27279 34096 34099 28
27280 34096 34100 28
27281 34101 34102 28
27282 34101 34103 28
27283 34101 34104 28
27284 34101 34105 28
27285 34106 34107 28
27286 34106 34108 28
27287 34106 34109 28
27288 34106 34110 28
27289 34111 34112 28
27290 34111 34113 28
27291 34111 34114 28
27292 34111 34115 28
27293 34116 34117 28
27294 34116 34118 28
27295 34116 34119 28
27296 34116 34120 28
27297 34121 34122 28
27298 34121 34123 28
27299 34121 34124 28
27300 34121 34125 28
27301 34126 34127 28
27302 34126 34128 28
27303 34126 34129 28
27304 34126 34130 28
27305 34131 34132 28
27306 34131 34133 28
27307 34131 34134 28
27308 34131 34135 28
27309 34136 34137 28
27310 34136 34138 28
27311 34136 34139 28
27312 34136 34140 28
27313 34141 34142 28
27314 34141 34143 28
27315 34141 34144 28
27316 34141 34145 28
27317 34146 34147 28
27318 34146 34148 28
27319 34146 34149 28
27320 34146 34150 28
27321 34151 34152 28
27322 34151 34153 28
27323 34151 34154 28
27324 34151 34155 28
27325 34156 34157 28
27326 34156 34158 28
27327 34156 34159 28
27328 34156 34160 28
27329 34161 34162 28
27330 34161 34163 28
27331 34161 34164 28
27332 34161 34165 28
27333 34166 34167 28
27334 34166 34168 28
27335 34166 34169 28
27336 34166 34170 28
27337 34171 34172 28
27338 34171 34173 28
27339 34171 34174 28
27340 34171 34175 28
27341 34176 34177 28
27342 34176 34178 28
27343 34176 34179 28
27344 34176 34180 28
27345 34181 34182 28
27346 34181 34183 28
27347 34181 34184 28
27348 34181 34185 28
27349 34186 34187 28
27350 34186 34188 28
27351 34186 34189 28
27352 34186 34190 28
27353 34191 34192 28
27354 34191 34193 28
27355 34191 34194 28
27356 34191 34195 28
27357 34196 34197 28
27358 34196 34198 28
27359 34196 34199 28
27360 34196 34200 28
27361 34201 34202 28
27362 34201 34203 28
27363 34201 34204 28
27364 34201 34205 28
27365 34206 34207 28
27366 34206 34208 28
27367 34206 34209 28
27368 34206 34210 28
27369 34211 34212 28
27370 34211 34213 28
27371 34211 34214 28
27372 34211 34215 28
27373 34216 34217 28
27374 34216 34218 28
27375 34216 34219 28
27376 34216 34220 28
27377 34221 34222 28
27378 34221 34223 28
27379 34221 34224 28
27380 34221 34225 28
27381 34226 34227 28
27382 34226 34228 28
27383 34226 34229 28
27384 34226 34230 28
27385 34231 34232 28
27386 34231 34233 28
27387 34231 34234 28
27388 34231 34235 28
27389 34236 34237 28
27390 34236 34238 28
27391 34236 34239 28
27392 34236 34240 28
27393 34241 34242 28
27394 34241 34243 28
27395 34241 34244 28
27396 34241 34245 28
27397 34246 34247 28
27398 34246 34248 28
27399 34246 34249 28
27400 34246 34250 28
27401 34251 34252 28
27402 34251 34253 28
27403 34251 34254 28
27404 34251 34255 28
27405 34256 34257 28
27406 34256 34258 28
27407 34256 34259 28
27408 34256 34260 28
27409 34261 34262 28
27410 34261 34263 28
27411 34261 34264 28
27412 34261 34265 28
27413 34266 34267 28
27414 34266 34268 28
27415 34266 34269 28
27416 34266 34270 28
27417 34271 34272 28
27418 34271 34273 28
27419 34271 34274 28
27420 34271 34275 28
27421 34276 34277 28
27422 34276 34278 28
27423 34276 34279 28
27424 34276 34280 28
27425 34281 34282 28
27426 34281 34283 28
27427 34281 34284 28
27428 34281 34285 28
27429 34286 34287 28
27430 34286 34288 28
27431 34286 34289 28
27432 34286 34290 28
27433 34291 34292 28
27434 34291 34293 28
27435 34291 34294 28
27436 34291 34295 28
27437 34296 34297 28
27438 34296 34298 28
27439 34296 34299 28
27440 34296 34300 28
27441 34301 34302 28
27442 34301 34303 28
27443 34301 34304 28
27444 34301 34305 28
27445 34306 34307 28
27446 34306 34308 28
27447 34306 34309 28
27448 34306 34310 28
27449 34311 34312 28
27450 34311 34313 28
27451 34311 34314 28
27452 34311 34315 28
27453 34316 34317 28
27454 34316 34318 28
27455 34316 34319 28
27456 34316 34320 28
27457 34321 34322 28
27458 34321 34323 28
27459 34321 34324 28
27460 34321 34325 28
27461 34326 34327 28
27462 34326 34328 28
27463 34326 34329 28
27464 34326 34330 28
27465 34331 34332 28
27466 34331 34333 28
27467 34331 34334 28
27468 34331 34335 28
27469 34336 34337 28
27470 34336 34338 28
27471 34336 34339 28
27472 34336 34340 28
27473 34341 34342 28
27474 34341 34343 28
27475 34341 34344 28
27476 34341 34345 28
27477 34346 34347 28
27478 34346 34348 28
27479 34346 34349 28
27480 34346 34350 28
27481 34351 34352 28
27482 34351 34353 28
27483 34351 34354 28
27484 34351 34355 28
27485 34356 34357 28
27486 34356 34358 28
27487 34356 34359 28
27488 34356 34360 28
27489 34361 34362 28
27490 34361 34363 28
27491 34361 34364 28
27492 34361 34365 28
27493 34366 34367 28
27494 34366 34368 28
27495 34366 34369 28
27496 34366 34370 28
27497 34371 34372 28
27498 34371 34373 28
27499 34371 34374 28
27500 34371 34375 28
27501 34376 34377 28
27502 34376 34378 28
27503 34376 34379 28
27504 34376 34380 28
27505 34381 34382 28
27506 34381 34383 28
27507 34381 34384 28
27508 34381 34385 28
27509 34386 34387 28
27510 34386 34388 28
27511 34386 34389 28
27512 34386 34390 28
27513 34391 34392 28
27514 34391 34393 28
27515 34391 34394 28
27516 34391 34395 28
27517 34396 34397 28
27518 34396 34398 28
27519 34396 34399 28
27520 34396 34400 28
27521 34401 34402 28
27522 34401 34403 28
27523 34401 34404 28
27524 34401 34405 28
27525 34406 34407 28
27526 34406 34408 28
27527 34406 34409 28
27528 34406 34410 28
27529 34411 34412 28
27530 34411 34413 28
27531 34411 34414 28
27532 34411 34415 28
27533 34416 34417 28
27534 34416 34418 28
27535 34416 34419 28
27536 34416 34420 28
27537 34421 34422 28
27538 34421 34423 28
27539 34421 34424 28
27540 34421 34425 28
27541 34426 34427 28
27542 34426 34428 28
27543 34426 34429 28
27544 34426 34430 28
27545 34431 34432 28
27546 34431 34433 28
27547 34431 34434 28
27548 34431 34435 28
27549 34436 34437 28
27550 34436 34438 28
27551 34436 34439 28
27552 34436 34440 28
27553 34441 34442 28
27554 34441 34443 28
27555 34441 34444 28
27556 34441 34445 28
27557 34446 34447 28
27558 34446 34448 28
27559 34446 34449 28
27560 34446 34450 28
27561 34451 34452 28
27562 34451 34453 28
27563 34451 34454 28
27564 34451 34455 28
27565 34456 34457 28
27566 34456 34458 28
27567 34456 34459 28
27568 34456 34460 28
27569 34461 34462 28
27570 34461 34463 28
27571 34461 34464 28
27572 34461 34465 28
27573 34466 34467 28
27574 34466 34468 28
27575 34466 34469 28
27576 34466 34470 28
27577 34471 34472 28
27578 34471 34473 28
27579 34471 34474 28
27580 34471 34475 28
27581 34476 34477 28
27582 34476 34478 28
27583 34476 34479 28
27584 34476 34480 28
27585 34481 34482 28
27586 34481 34483 28
27587 34481 34484 28
27588 34481 34485 28
27589 34486 34487 28
27590 34486 34488 28
27591 34486 34489 28
27592 34486 34490 28
27593 34491 34492 28
27594 34491 34493 28
27595 34491 34494 28
27596 34491 34495 28
27597 34496 34497 28
27598 34496 34498 28
27599 34496 34499 28
27600 34496 34500 28
27601 34501 34502 28
27602 34501 34503 28
27603 34501 34504 28
27604 34501 34505 28
27605 34506 34507 28
27606 34506 34508 28
27607 34506 34509 28
27608 34506 34510 28
27609 34511 34512 28
27610 34511 34513 28
27611 34511 34514 28
27612 34511 34515 28
27613 34516 34517 28
27614 34516 34518 28
27615 34516 34519 28
27616 34516 34520 28
27617 34521 34522 28
27618 34521 34523 28
27619 34521 34524 28
27620 34521 34525 28
27621 34526 34527 28
27622 34526 34528 28
27623 34526 34529 28
27624 34526 34530 28
27625 34531 34532 28
27626 34531 34533 28
27627 34531 34534 28
27628 34531 34535 28
27629 34536 34537 28
27630 34536 34538 28
27631 34536 34539 28
27632 34536 34540 28
27633 34541 34542 28
27634 34541 34543 28
27635 34541 34544 28
27636 34541 34545 28
27637 34546 34547 28
27638 34546 34548 28
27639 34546 34549 28
27640 34546 34550 28
27641 34551 34552 28
27642 34551 34553 28
27643 34551 34554 28
27644 34551 34555 28
27645 34556 34557 28
27646 34556 34558 28
27647 34556 34559 28
27648 34556 34560 28
27649 34561 34562 28
27650 34561 34563 28
27651 34561 34564 28
27652 34561 34565 28
27653 34566 34567 28
27654 34566 34568 28
27655 34566 34569 28
27656 34566 34570 28
27657 34571 34572 28
27658 34571 34573 28
27659 34571 34574 28
27660 34571 34575 28
27661 34576 34577 28
27662 34576 34578 28
27663 34576 34579 28
27664 34576 34580 28
27665 34581 34582 28
27666 34581 34583 28
27667 34581 34584 28
27668 34581 34585 28
27669 34586 34587 28
27670 34586 34588 28
27671 34586 34589 28
27672 34586 34590 28
27673 34591 34592 28
27674 34591 34593 28
27675 34591 34594 28
27676 34591 34595 28
27677 34596 34597 28
27678 34596 34598 28
27679 34596 34599 28
27680 34596 34600 28
27681 34601 34602 28
27682 34601 34603 28
27683 34601 34604 28
27684 34601 34605 28
27685 34606 34607 28
27686 34606 34608 28
27687 34606 34609 28
27688 34606 34610 28
27689 34611 34612 28
27690 34611 34613 28
27691 34611 34614 28
27692 34611 34615 28
27693 34616 34617 28
27694 34616 34618 28
27695 34616 34619 28
27696 34616 34620 28
27697 34621 34622 28
27698 34621 34623 28
27699 34621 34624 28
27700 34621 34625 28
27701 34626 34627 28
27702 34626 34628 28
27703 34626 34629 28
27704 34626 34630 28
27705 34631 34632 28
27706 34631 34633 28
27707 34631 34634 28
27708 34631 34635 28
27709 34636 34637 28
27710 34636 34638 28
27711 34636 34639 28
27712 34636 34640 28
27713 34641 34642 28
27714 34641 34643 28
27715 34641 34644 28
27716 34641 34645 28
27717 34646 34647 28
27718 34646 34648 28
27719 34646 34649 28
27720 34646 34650 28
27721 34651 34652 28
27722 34651 34653 28
27723 34651 34654 28
27724 34651 34655 28
27725 34656 34657 28
27726 34656 34658 28
27727 34656 34659 28
27728 34656 34660 28
27729 34661 34662 28
27730 34661 34663 28
27731 34661 34664 28
27732 34661 34665 28
27733 34666 34667 28
27734 34666 34668 28
27735 34666 34669 28
27736 34666 34670 28
27737 34671 34672 28
27738 34671 34673 28
27739 34671 34674 28
27740 34671 34675 28
27741 34676 34677 28
27742 34676 34678 28
27743 34676 34679 28
27744 34676 34680 28
27745 34681 34682 28
27746 34681 34683 28
27747 34681 34684 28
27748 34681 34685 28
27749 34686 34687 28
27750 34686 34688 28
27751 34686 34689 28
27752 34686 34690 28
27753 34691 34692 28
27754 34691 34693 28
27755 34691 34694 28
27756 34691 34695 28
27757 34696 34697 28
27758 34696 34698 28
27759 34696 34699 28
27760 34696 34700 28
27761 34701 34702 28
27762 34701 34703 28
27763 34701 34704 28
27764 34701 34705 28
27765 34706 34707 28
27766 34706 34708 28
27767 34706 34709 28
27768 34706 34710 28
27769 34711 34712 28
27770 34711 34713 28
27771 34711 34714 28
27772 34711 34715 28
27773 34716 34717 28
27774 34716 34718 28
27775 34716 34719 28
27776 34716 34720 28
27777 34721 34722 28
27778 34721 34723 28
27779 34721 34724 28
27780 34721 34725 28
27781 34726 34727 28
27782 34726 34728 28
27783 34726 34729 28
27784 34726 34730 28
27785 34731 34732 28
27786 34731 34733 28
27787 34731 34734 28
27788 34731 34735 28
27789 34736 34737 28
27790 34736 34738 28
27791 34736 34739 28
27792 34736 34740 28
27793 34741 34742 28
27794 34741 34743 28
27795 34741 34744 28
27796 34741 34745 28
27797 34746 34747 28
27798 34746 34748 28
27799 34746 34749 28
27800 34746 34750 28
27801 34751 34752 28
27802 34751 34753 28
27803 34751 34754 28
27804 34751 34755 28
27805 34756 34757 28
27806 34756 34758 28
27807 34756 34759 28
27808 34756 34760 28
27809 34761 34762 28
27810 34761 34763 28
27811 34761 34764 28
27812 34761 34765 28
27813 34766 34767 28
27814 34766 34768 28
27815 34766 34769 28
27816 34766 34770 28
27817 34771 34772 28
27818 34771 34773 28
27819 34771 34774 28
27820 34771 34775 28
27821 34776 34777 28
27822 34776 34778 28
27823 34776 34779 28
27824 34776 34780 28
27825 34781 34782 28
27826 34781 34783 28
27827 34781 34784 28
27828 34781 34785 28
27829 34786 34787 28
27830 34786 34788 28
27831 34786 34789 28
27832 34786 34790 28
27833 34791 34792 28
27834 34791 34793 28
27835 34791 34794 28
27836 34791 34795 28
27837 34796 34797 28
27838 34796 34798 28
27839 34796 34799 28
27840 34796 34800 28
27841 34801 34802 28
27842 34801 34803 28
27843 34801 34804 28
27844 34801 34805 28
27845 34806 34807 28
27846 34806 34808 28
27847 34806 34809 28
27848 34806 34810 28
27849 34811 34812 28
27850 34811 34813 28
27851 34811 34814 28
27852 34811 34815 28
27853 34816 34817 28
27854 34816 34818 28
27855 34816 34819 28
27856 34816 34820 28
27857 34821 34822 28
27858 34821 34823 28
27859 34821 34824 28
27860 34821 34825 28
27861 34826 34827 28
27862 34826 34828 28
27863 34826 34829 28
27864 34826 34830 28
27865 34831 34832 28
27866 34831 34833 28
27867 34831 34834 28
27868 34831 34835 28
27869 34836 34837 28
27870 34836 34838 28
27871 34836 34839 28
27872 34836 34840 28
27873 34841 34842 28
27874 34841 34843 28
27875 34841 34844 28
27876 34841 34845 28
27877 34846 34847 28
27878 34846 34848 28
27879 34846 34849 28
27880 34846 34850 28
27881 34851 34852 28
27882 34851 34853 28
27883 34851 34854 28
27884 34851 34855 28
27885 34856 34857 28
27886 34856 34858 28
27887 34856 34859 28
27888 34856 34860 28
27889 34861 34862 28
27890 34861 34863 28
27891 34861 34864 28
27892 34861 34865 28
27893 34866 34867 28
27894 34866 34868 28
27895 34866 34869 28
27896 34866 34870 28
27897 34871 34872 28
27898 34871 34873 28
27899 34871 34874 28
27900 34871 34875 28
27901 34876 34877 28
27902 34876 34878 28
27903 34876 34879 28
27904 34876 34880 28
27905 34881 34882 28
27906 34881 34883 28
27907 34881 34884 28
27908 34881 34885 28
27909 34886 34887 28
27910 34886 34888 28
27911 34886 34889 28
27912 34886 34890 28
27913 34891 34892 28
27914 34891 34893 28
27915 34891 34894 28
27916 34891 34895 28
27917 34896 34897 28
27918 34896 34898 28
27919 34896 34899 28
27920 34896 34900 28
27921 34901 34902 28
27922 34901 34903 28
27923 34901 34904 28
27924 34901 34905 28
27925 34906 34907 28
27926 34906 34908 28
27927 34906 34909 28
27928 34906 34910 28
27929 34911 34912 28
27930 34911 34913 28
27931 34911 34914 28
27932 34911 34915 28
27933 34916 34917 28
27934 34916 34918 28
27935 34916 34919 28
27936 34916 34920 28
27937 34921 34922 28
27938 34921 34923 28
27939 34921 34924 28
27940 34921 34925 28
27941 34926 34927 28
27942 34926 34928 28
27943 34926 34929 28
27944 34926 34930 28
27945 34931 34932 28
27946 34931 34933 28
27947 34931 34934 28
27948 34931 34935 28
27949 34936 34937 28
27950 34936 34938 28
27951 34936 34939 28
27952 34936 34940 28
27953 34941 34942 28
27954 34941 34943 28
27955 34941 34944 28
27956 34941 34945 28
27957 34946 34947 28
27958 34946 34948 28
27959 34946 34949 28
27960 34946 34950 28
27961 34951 34952 28
27962 34951 34953 28
27963 34951 34954 28
27964 34951 34955 28
27965 34956 34957 28
27966 34956 34958 28
27967 34956 34959 28
27968 34956 34960 28
27969 34961 34962 28
27970 34961 34963 28
27971 34961 34964 28
27972 34961 34965 28
27973 34966 34967 28
27974 34966 34968 28
27975 34966 34969 28
27976 34966 34970 28
27977 34971 34972 28
27978 34971 34973 28
27979 34971 34974 28
27980 34971 34975 28
27981 34976 34977 28
27982 34976 34978 28
27983 34976 34979 28
27984 34976 34980 28
27985 34981 34982 28
27986 34981 34983 28
27987 34981 34984 28
27988 34981 34985 28
27989 34986 34987 28
27990 34986 34988 28
27991 34986 34989 28
27992 34986 34990 28
27993 34991 34992 28
27994 34991 34993 28
27995 34991 34994 28
27996 34991 34995 28
27997 34996 34997 28
27998 34996 34998 28
27999 34996 34999 28
28000 34996 35000 28
28001 35001 35002 28
28002 35001 35003 28
28003 35001 35004 28
28004 35001 35005 28
28005 35006 35007 28
28006 35006 35008 28
28007 35006 35009 28
28008 35006 35010 28
28009 35011 35012 28
28010 35011 35013 28
28011 35011 35014 28
28012 35011 35015 28
28013 35016 35017 28
28014 35016 35018 28
28015 35016 35019 28
28016 35016 35020 28
28017 35021 35022 28
28018 35021 35023 28
28019 35021 35024 28
28020 35021 35025 28
28021 35026 35027 28
28022 35026 35028 28
28023 35026 35029 28
28024 35026 35030 28
28025 35031 35032 28
28026 35031 35033 28
28027 35031 35034 28
28028 35031 35035 28
28029 35036 35037 28
28030 35036 35038 28
28031 35036 35039 28
28032 35036 35040 28
28033 35041 35042 28
28034 35041 35043 28
28035 35041 35044 28
28036 35041 35045 28
28037 35046 35047 28
28038 35046 35048 28
28039 35046 35049 28
28040 35046 35050 28
28041 35051 35052 28
28042 35051 35053 28
28043 35051 35054 28
28044 35051 35055 28
28045 35056 35057 28
28046 35056 35058 28
28047 35056 35059 28
28048 35056 35060 28
28049 35061 35062 28
28050 35061 35063 28
28051 35061 35064 28
28052 35061 35065 28
28053 35066 35067 28
28054 35066 35068 28
28055 35066 35069 28
28056 35066 35070 28
28057 35071 35072 28
28058 35071 35073 28
28059 35071 35074 28
28060 35071 35075 28
28061 35076 35077 28
28062 35076 35078 28
28063 35076 35079 28
28064 35076 35080 28
28065 35081 35082 28
28066 35081 35083 28
28067 35081 35084 28
28068 35081 35085 28
28069 35086 35087 28
28070 35086 35088 28
28071 35086 35089 28
28072 35086 35090 28
28073 35091 35092 28
28074 35091 35093 28
28075 35091 35094 28
28076 35091 35095 28
28077 35096 35097 28
28078 35096 35098 28
28079 35096 35099 28
28080 35096 35100 28
28081 35101 35102 28
28082 35101 35103 28
28083 35101 35104 28
28084 35101 35105 28
28085 35106 35107 28
28086 35106 35108 28
28087 35106 35109 28
28088 35106 35110 28
28089 35111 35112 28
28090 35111 35113 28
28091 35111 35114 28
28092 35111 35115 28
28093 35116 35117 28
28094 35116 35118 28
28095 35116 35119 28
28096 35116 35120 28
28097 35121 35122 28
28098 35121 35123 28
28099 35121 35124 28
28100 35121 35125 28
28101 35126 35127 28
28102 35126 35128 28
28103 35126 35129 28
28104 35126 35130 28
28105 35131 35132 28
28106 35131 35133 28
28107 35131 35134 28
28108 35131 35135 28
28109 35136 35137 28
28110 35136 35138 28
28111 35136 35139 28
28112 35136 35140 28
28113 35141 35142 28
28114 35141 35143 28
28115 35141 35144 28
28116 35141 35145 28
28117 35146 35147 28
28118 35146 35148 28
28119 35146 35149 28
28120 35146 35150 28
28121 35151 35152 28
28122 35151 35153 28
28123 35151 35154 28
28124 35151 35155 28
28125 35156 35157 28
28126 35156 35158 28
28127 35156 35159 28
28128 35156 35160 28
28129 35161 35162 28
28130 35161 35163 28
28131 35161 35164 28
28132 35161 35165 28
28133 35166 35167 28
28134 35166 35168 28
28135 35166 35169 28
28136 35166 35170 28
28137 35171 35172 28
28138 35171 35173 28
28139 35171 35174 28
28140 35171 35175 28
28141 35176 35177 28
28142 35176 35178 28
28143 35176 35179 28
28144 35176 35180 28
28145 35181 35182 28
28146 35181 35183 28
28147 35181 35184 28
28148 35181 35185 28
28149 35186 35187 28
28150 35186 35188 28
28151 35186 35189 28
28152 35186 35190 28
28153 35191 35192 28
28154 35191 35193 28
28155 35191 35194 28
28156 35191 35195 28
28157 35196 35197 28
28158 35196 35198 28
28159 35196 35199 28
28160 35196 35200 28
28161 35201 35202 28
28162 35201 35203 28
28163 35201 35204 28
28164 35201 35205 28
28165 35206 35207 28
28166 35206 35208 28
28167 35206 35209 28
28168 35206 35210 28
28169 35211 35212 28
28170 35211 35213 28
28171 35211 35214 28
28172 35211 35215 28
28173 35216 35217 28
28174 35216 35218 28
28175 35216 35219 28
28176 35216 35220 28
28177 35221 35222 28
28178 35221 35223 28
28179 35221 35224 28
28180 35221 35225 28
28181 35226 35227 28
28182 35226 35228 28
28183 35226 35229 28
28184 35226 35230 28
28185 35231 35232 28
28186 35231 35233 28
28187 35231 35234 28
28188 35231 35235 28
28189 35236 35237 28
28190 35236 35238 28
28191 35236 35239 28
28192 35236 35240 28
28193 35241 35242 28
28194 35241 35243 28
28195 35241 35244 28
28196 35241 35245 28
28197 35246 35247 28
28198 35246 35248 28
28199 35246 35249 28
28200 35246 35250 28
28201 35251 35252 28
28202 35251 35253 28
28203 35251 35254 28
28204 35251 35255 28
28205 35256 35257 28
28206 35256 35258 28
28207 35256 35259 28
28208 35256 35260 28
28209 35261 35262 28
28210 35261 35263 28
28211 35261 35264 28
28212 35261 35265 28
28213 35266 35267 28
28214 35266 35268 28
28215 35266 35269 28
28216 35266 35270 28
28217 35271 35272 28
28218 35271 35273 28
28219 35271 35274 28
28220 35271 35275 28
28221 35276 35277 28
28222 35276 35278 28
28223 35276 35279 28
28224 35276 35280 28
28225 35281 35282 28
28226 35281 35283 28
28227 35281 35284 28
28228 35281 35285 28
28229 35286 35287 28
28230 35286 35288 28
28231 35286 35289 28
28232 35286 35290 28
28233 35291 35292 28
28234 35291 35293 28
28235 35291 35294 28
28236 35291 35295 28
28237 35296 35297 28
28238 35296 35298 28
28239 35296 35299 28
28240 35296 35300 28
28241 35301 35302 28
28242 35301 35303 28
28243 35301 35304 28
28244 35301 35305 28
28245 35306 35307 28
28246 35306 35308 28
28247 35306 35309 28
28248 35306 35310 28
28249 35311 35312 28
28250 35311 35313 28
28251 35311 35314 28
28252 35311 35315 28
28253 35316 35317 28
28254 35316 35318 28
28255 35316 35319 28
28256 35316 35320 28
28257 35321 35322 28
28258 35321 35323 28
28259 35321 35324 28
28260 35321 35325 28
28261 35326 35327 28
28262 35326 35328 28
28263 35326 35329 28
28264 35326 35330 28
28265 35331 35332 28
28266 35331 35333 28
28267 35331 35334 28
28268 35331 35335 28
28269 35336 35337 28
28270 35336 35338 28
28271 35336 35339 28
28272 35336 35340 28
28273 35341 35342 28
28274 35341 35343 28
28275 35341 35344 28
28276 35341 35345 28
28277 35346 35347 28
28278 35346 35348 28
28279 35346 35349 28
28280 35346 35350 28
28281 35351 35352 28
28282 35351 35353 28
28283 35351 35354 28
28284 35351 35355 28
28285 35356 35357 28
28286 35356 35358 28
28287 35356 35359 28
28288 35356 35360 28
28289 35361 35362 28
28290 35361 35363 28
28291 35361 35364 28
28292 35361 35365 28
28293 35366 35367 28
28294 35366 35368 28
28295 35366 35369 28
28296 35366 35370 28
28297 35371 35372 28
28298 35371 35373 28
28299 35371 35374 28
28300 35371 35375 28
28301 35376 35377 28
28302 35376 35378 28
28303 35376 35379 28
28304 35376 35380 28
28305 35381 35382 28
28306 35381 35383 28
28307 35381 35384 28
28308 35381 35385 28
28309 35386 35387 28
28310 35386 35388 28
28311 35386 35389 28
28312 35386 35390 28
28313 35391 35392 28
28314 35391 35393 28
28315 35391 35394 28
28316 35391 35395 28
28317 35396 35397 28
28318 35396 35398 28
28319 35396 35399 28
28320 35396 35400 28
28321 35401 35402 28
28322 35401 35403 28
28323 35401 35404 28
28324 35401 35405 28
28325 35406 35407 28
28326 35406 35408 28
28327 35406 35409 28
28328 35406 35410 28
28329 35411 35412 28
28330 35411 35413 28
28331 35411 35414 28
28332 35411 35415 28
28333 35416 35417 28
28334 35416 35418 28
28335 35416 35419 28
28336 35416 35420 28
28337 35421 35422 28
28338 35421 35423 28
28339 35421 35424 28
28340 35421 35425 28
28341 35426 35427 28
28342 35426 35428 28
28343 35426 35429 28
28344 35426 35430 28
28345 35431 35432 28
28346 35431 35433 28
28347 35431 35434 28
28348 35431 35435 28
28349 35436 35437 28
28350 35436 35438 28
28351 35436 35439 28
28352 35436 35440 28
28353 35441 35442 28
28354 35441 35443 28
28355 35441 35444 28
28356 35441 35445 28
28357 35446 35447 28
28358 35446 35448 28
28359 35446 35449 28
28360 35446 35450 28
28361 35451 35452 28
28362 35451 35453 28
28363 35451 35454 28
28364 35451 35455 28
28365 35456 35457 28
28366 35456 35458 28
28367 35456 35459 28
28368 35456 35460 28
28369 35461 35462 28
28370 35461 35463 28
28371 35461 35464 28
28372 35461 35465 28
28373 35466 35467 28
28374 35466 35468 28
28375 35466 35469 28
28376 35466 35470 28
28377 35471 35472 28
28378 35471 35473 28
28379 35471 35474 28
28380 35471 35475 28
28381 35476 35477 28
28382 35476 35478 28
28383 35476 35479 28
28384 35476 35480 28
28385 35481 35482 28
28386 35481 35483 28
28387 35481 35484 28
28388 35481 35485 28
28389 35486 35487 28
28390 35486 35488 28
28391 35486 35489 28
28392 35486 35490 28
28393 35491 35492 28
28394 35491 35493 28
28395 35491 35494 28
28396 35491 35495 28
28397 35496 35497 28
28398 35496 35498 28
28399 35496 35499 28
28400 35496 35500 28
28401 35501 35502 28
28402 35501 35503 28
28403 35501 35504 28
28404 35501 35505 28
28405 35506 35507 28
28406 35506 35508 28
28407 35506 35509 28
28408 35506 35510 28
28409 35511 35512 28
28410 35511 35513 28
28411 35511 35514 28
28412 35511 35515 28
28413 35516 35517 28
28414 35516 35518 28
28415 35516 35519 28
28416 35516 35520 28
28417 35521 35522 28
28418 35521 35523 28
28419 35521 35524 28
28420 35521 35525 28
28421 35526 35527 28
28422 35526 35528 28
28423 35526 35529 28
28424 35526 35530 28
28425 35531 35532 28
28426 35531 35533 28
28427 35531 35534 28
28428 35531 35535 28
28429 35536 35537 28
28430 35536 35538 28
28431 35536 35539 28
28432 35536 35540 28
28433 35541 35542 28
28434 35541 35543 28
28435 35541 35544 28
28436 35541 35545 28
28437 35546 35547 28
28438 35546 35548 28
28439 35546 35549 28
28440 35546 35550 28
28441 35551 35552 28
28442 35551 35553 28
28443 35551 35554 28
28444 35551 35555 28
28445 35556 35557 28
28446 35556 35558 28
28447 35556 35559 28
28448 35556 35560 28
28449 35561 35562 28
28450 35561 35563 28
28451 35561 35564 28
28452 35561 35565 28
28453 35566 35567 28
28454 35566 35568 28
28455 35566 35569 28
28456 35566 35570 28
28457 35571 35572 28
28458 35571 35573 28
28459 35571 35574 28
28460 35571 35575 28
28461 35576 35577 28
28462 35576 35578 28
28463 35576 35579 28
28464 35576 35580 28
28465 35581 35582 28
28466 35581 35583 28
28467 35581 35584 28
28468 35581 35585 28
28469 35586 35587 28
28470 35586 35588 28
28471 35586 35589 28
28472 35586 35590 28
28473 35591 35592 28
28474 35591 35593 28
28475 35591 35594 28
28476 35591 35595 28
28477 35596 35597 28
28478 35596 35598 28
28479 35596 35599 28
28480 35596 35600 28
28481 35601 35602 28
28482 35601 35603 28
28483 35601 35604 28
28484 35601 35605 28
28485 35606 35607 28
28486 35606 35608 28
28487 35606 35609 28
28488 35606 35610 28
28489 35611 35612 28
28490 35611 35613 28
28491 35611 35614 28
28492 35611 35615 28
28493 35616 35617 28
28494 35616 35618 28
28495 35616 35619 28
28496 35616 35620 28
28497 35621 35622 28
28498 35621 35623 28
28499 35621 35624 28
28500 35621 35625 28
28501 35626 35627 28
28502 35626 35628 28
28503 35626 35629 28
28504 35626 35630 28
28505 35631 35632 28
28506 35631 35633 28
28507 35631 35634 28
28508 35631 35635 28
28509 35636 35637 28
28510 35636 35638 28
28511 35636 35639 28
28512 35636 35640 28
28513 35641 35642 28
28514 35641 35643 28
28515 35641 35644 28
28516 35641 35645 28
28517 35646 35647 28
28518 35646 35648 28
28519 35646 35649 28
28520 35646 35650 28
28521 35651 35652 28
28522 35651 35653 28
28523 35651 35654 28
28524 35651 35655 28
28525 35656 35657 28
28526 35656 35658 28
28527 35656 35659 28
28528 35656 35660 28
28529 35661 35662 28
28530 35661 35663 28
28531 35661 35664 28
28532 35661 35665 28
28533 35666 35667 28
28534 35666 35668 28
28535 35666 35669 28
28536 35666 35670 28
28537 35671 35672 28
28538 35671 35673 28
28539 35671 35674 28
28540 35671 35675 28
28541 35676 35677 28
28542 35676 35678 28
28543 35676 35679 28
28544 35676 35680 28
28545 35681 35682 28
28546 35681 35683 28
28547 35681 35684 28
28548 35681 35685 28
28549 35686 35687 28
28550 35686 35688 28
28551 35686 35689 28
28552 35686 35690 28
28553 35691 35692 28
28554 35691 35693 28
28555 35691 35694 28
28556 35691 35695 28
28557 35696 35697 28
28558 35696 35698 28
28559 35696 35699 28
28560 35696 35700 28
28561 35701 35702 28
28562 35701 35703 28
28563 35701 35704 28
28564 35701 35705 28
28565 35706 35707 28
28566 35706 35708 28
28567 35706 35709 28
28568 35706 35710 28
28569 35711 35712 28
28570 35711 35713 28
28571 35711 35714 28
28572 35711 35715 28
28573 35716 35717 28
28574 35716 35718 28
28575 35716 35719 28
28576 35716 35720 28
28577 35721 35722 28
28578 35721 35723 28
28579 35721 35724 28
28580 35721 35725 28
28581 35726 35727 28
28582 35726 35728 28
28583 35726 35729 28
28584 35726 35730 28
28585 35731 35732 28
28586 35731 35733 28
28587 35731 35734 28
28588 35731 35735 28
28589 35736 35737 28
28590 35736 35738 28
28591 35736 35739 28
28592 35736 35740 28
28593 35741 35742 28
28594 35741 35743 28
28595 35741 35744 28
28596 35741 35745 28
28597 35746 35747 28
28598 35746 35748 28
28599 35746 35749 28
28600 35746 35750 28
28601 35751 35752 28
28602 35751 35753 28
28603 35751 35754 28
28604 35751 35755 28
28605 35756 35757 28
28606 35756 35758 28
28607 35756 35759 28
28608 35756 35760 28
28609 35761 35762 28
28610 35761 35763 28
28611 35761 35764 28
28612 35761 35765 28
28613 35766 35767 28
28614 35766 35768 28
28615 35766 35769 28
28616 35766 35770 28
28617 35771 35772 28
28618 35771 35773 28
28619 35771 35774 28
28620 35771 35775 28
28621 35776 35777 28
28622 35776 35778 28
28623 35776 35779 28
28624 35776 35780 28
28625 35781 35782 28
28626 35781 35783 28
28627 35781 35784 28
28628 35781 35785 28
28629 35786 35787 28
28630 35786 35788 28
28631 35786 35789 28
28632 35786 35790 28
28633 35791 35792 28
28634 35791 35793 28
28635 35791 35794 28
28636 35791 35795 28
28637 35796 35797 28
28638 35796 35798 28
28639 35796 35799 28
28640 35796 35800 28
28641 35801 35802 28
28642 35801 35803 28
28643 35801 35804 28
28644 35801 35805 28
28645 35806 35807 28
28646 35806 35808 28
28647 35806 35809 28
28648 35806 35810 28
28649 35811 35812 28
28650 35811 35813 28
28651 35811 35814 28
28652 35811 35815 28
28653 35816 35817 28
28654 35816 35818 28
28655 35816 35819 28
28656 35816 35820 28
28657 35821 35822 28
28658 35821 35823 28
28659 35821 35824 28
28660 35821 35825 28
28661 35826 35827 28
28662 35826 35828 28
28663 35826 35829 28
28664 35826 35830 28
28665 35831 35832 28
28666 35831 35833 28
28667 35831 35834 28
28668 35831 35835 28
28669 35836 35837 28
28670 35836 35838 28
28671 35836 35839 28
28672 35836 35840 28
28673 35841 35842 28
28674 35841 35843 28
28675 35841 35844 28
28676 35841 35845 28
28677 35846 35847 28
28678 35846 35848 28
28679 35846 35849 28
28680 35846 35850 28
28681 35851 35852 28
28682 35851 35853 28
28683 35851 35854 28
28684 35851 35855 28
28685 35856 35857 28
28686 35856 35858 28
28687 35856 35859 28
28688 35856 35860 28
28689 35861 35862 28
28690 35861 35863 28
28691 35861 35864 28
28692 35861 35865 28
28693 35866 35867 28
28694 35866 35868 28
28695 35866 35869 28
28696 35866 35870 28
28697 35871 35872 28
28698 35871 35873 28
28699 35871 35874 28
28700 35871 35875 28
28701 35876 35877 28
28702 35876 35878 28
28703 35876 35879 28
28704 35876 35880 28
28705 35881 35882 28
28706 35881 35883 28
28707 35881 35884 28
28708 35881 35885 28
28709 35886 35887 28
28710 35886 35888 28
28711 35886 35889 28
28712 35886 35890 28
28713 35891 35892 28
28714 35891 35893 28
28715 35891 35894 28
28716 35891 35895 28
28717 35896 35897 28
28718 35896 35898 28
28719 35896 35899 28
28720 35896 35900 28
28721 35901 35902 28
28722 35901 35903 28
28723 35901 35904 28
28724 35901 35905 28
28725 35906 35907 28
28726 35906 35908 28
28727 35906 35909 28
28728 35906 35910 28
28729 35911 35912 28
28730 35911 35913 28
28731 35911 35914 28
28732 35911 35915 28
28733 35916 35917 28
28734 35916 35918 28
28735 35916 35919 28
28736 35916 35920 28
28737 35921 35922 28
28738 35921 35923 28
28739 35921 35924 28
28740 35921 35925 28
28741 35926 35927 28
28742 35926 35928 28
28743 35926 35929 28
28744 35926 35930 28
28745 35931 35932 28
28746 35931 35933 28
28747 35931 35934 28
28748 35931 35935 28
28749 35936 35937 28
28750 35936 35938 28
28751 35936 35939 28
28752 35936 35940 28
28753 35941 35942 28
28754 35941 35943 28
28755 35941 35944 28
28756 35941 35945 28
28757 35946 35947 28
28758 35946 35948 28
28759 35946 35949 28
28760 35946 35950 28
28761 35951 35952 28
28762 35951 35953 28
28763 35951 35954 28
28764 35951 35955 28
28765 35956 35957 28
28766 35956 35958 28
28767 35956 35959 28
28768 35956 35960 28
28769 35961 35962 28
28770 35961 35963 28
28771 35961 35964 28
28772 35961 35965 28
28773 35966 35967 28
28774 35966 35968 28
28775 35966 35969 28
28776 35966 35970 28
28777 35971 35972 28
28778 35971 35973 28
28779 35971 35974 28
28780 35971 35975 28
28781 35976 35977 28
28782 35976 35978 28
28783 35976 35979 28
28784 35976 35980 28
28785 35981 35982 28
28786 35981 35983 28
28787 35981 35984 28
28788 35981 35985 28
28789 35986 35987 28
28790 35986 35988 28
28791 35986 35989 28
28792 35986 35990 28
28793 35991 35992 28
28794 35991 35993 28
28795 35991 35994 28
28796 35991 35995 28
28797 35996 35997 28
28798 35996 35998 28
28799 35996 35999 28
28800 35996 36000 28
28801 36001 36002 28
28802 36001 36003 28
28803 36001 36004 28
28804 36001 36005 28
28805 36006 36007 28
28806 36006 36008 28
28807 36006 36009 28
28808 36006 36010 28
28809 36011 36012 28
28810 36011 36013 28
28811 36011 36014 28
28812 36011 36015 28
28813 36016 36017 28
28814 36016 36018 28
28815 36016 36019 28
28816 36016 36020 28
28817 36021 36022 28
28818 36021 36023 28
28819 36021 36024 28
28820 36021 36025 28
28821 36026 36027 28
28822 36026 36028 28
28823 36026 36029 28
28824 36026 36030 28
28825 36031 36032 28
28826 36031 36033 28
28827 36031 36034 28
28828 36031 36035 28
28829 36036 36037 28
28830 36036 36038 28
28831 36036 36039 28
28832 36036 36040 28
28833 36041 36042 28
28834 36041 36043 28
28835 36041 36044 28
28836 36041 36045 28
28837 36046 36047 28
28838 36046 36048 28
28839 36046 36049 28
28840 36046 36050 28
28841 36051 36052 28
28842 36051 36053 28
28843 36051 36054 28
28844 36051 36055 28
28845 36056 36057 28
28846 36056 36058 28
28847 36056 36059 28
28848 36056 36060 28
28849 36061 36062 28
28850 36061 36063 28
28851 36061 36064 28
28852 36061 36065 28
28853 36066 36067 28
28854 36066 36068 28
28855 36066 36069 28
28856 36066 36070 28
28857 36071 36072 28
28858 36071 36073 28
28859 36071 36074 28
28860 36071 36075 28
28861 36076 36077 28
28862 36076 36078 28
28863 36076 36079 28
28864 36076 36080 28
28865 36081 36082 28
28866 36081 36083 28
28867 36081 36084 28
28868 36081 36085 28
28869 36086 36087 28
28870 36086 36088 28
28871 36086 36089 28
28872 36086 36090 28
28873 36091 36092 28
28874 36091 36093 28
28875 36091 36094 28
28876 36091 36095 28
28877 36096 36097 28
28878 36096 36098 28
28879 36096 36099 28
28880 36096 36100 28
28881 36101 36102 28
28882 36101 36103 28
28883 36101 36104 28
28884 36101 36105 28
28885 36106 36107 28
28886 36106 36108 28
28887 36106 36109 28
28888 36106 36110 28
28889 36111 36112 28
28890 36111 36113 28
28891 36111 36114 28
28892 36111 36115 28
28893 36116 36117 28
28894 36116 36118 28
28895 36116 36119 28
28896 36116 36120 28
28897 36121 36122 28
28898 36121 36123 28
28899 36121 36124 28
28900 36121 36125 28
28901 36126 36127 28
28902 36126 36128 28
28903 36126 36129 28
28904 36126 36130 28
28905 36131 36132 28
28906 36131 36133 28
28907 36131 36134 28
28908 36131 36135 28
28909 36136 36137 28
28910 36136 36138 28
28911 36136 36139 28
28912 36136 36140 28
28913 36141 36142 28
28914 36141 36143 28
28915 36141 36144 28
28916 36141 36145 28
28917 36146 36147 28
28918 36146 36148 28
28919 36146 36149 28
28920 36146 36150 28
28921 36151 36152 28
28922 36151 36153 28
28923 36151 36154 28
28924 36151 36155 28
28925 36156 36157 28
28926 36156 36158 28
28927 36156 36159 28
28928 36156 36160 28
28929 36161 36162 28
28930 36161 36163 28
28931 36161 36164 28
28932 36161 36165 28
28933 36166 36167 28
28934 36166 36168 28
28935 36166 36169 28
28936 36166 36170 28
28937 36171 36172 28
28938 36171 36173 28
28939 36171 36174 28
28940 36171 36175 28
28941 36176 36177 28
28942 36176 36178 28
28943 36176 36179 28
28944 36176 36180 28
28945 36181 36182 28
28946 36181 36183 28
28947 36181 36184 28
28948 36181 36185 28
28949 36186 36187 28
28950 36186 36188 28
28951 36186 36189 28
28952 36186 36190 28
28953 36191 36192 28
28954 36191 36193 28
28955 36191 36194 28
28956 36191 36195 28
28957 36196 36197 28
28958 36196 36198 28
28959 36196 36199 28
28960 36196 36200 28
28961 36201 36202 28
28962 36201 36203 28
28963 36201 36204 28
28964 36201 36205 28
28965 36206 36207 28
28966 36206 36208 28
28967 36206 36209 28
28968 36206 36210 28
28969 36211 36212 28
28970 36211 36213 28
28971 36211 36214 28
28972 36211 36215 28
28973 36216 36217 28
28974 36216 36218 28
28975 36216 36219 28
28976 36216 36220 28
28977 36221 36222 28
28978 36221 36223 28
28979 36221 36224 28
28980 36221 36225 28
28981 36226 36227 28
28982 36226 36228 28
28983 36226 36229 28
28984 36226 36230 28
28985 36231 36232 28
28986 36231 36233 28
28987 36231 36234 28
28988 36231 36235 28
28989 36236 36237 28
28990 36236 36238 28
28991 36236 36239 28
28992 36236 36240 28
28993 36241 36242 28
28994 36241 36243 28
28995 36241 36244 28
28996 36241 36245 28
28997 36246 36247 28
28998 36246 36248 28
28999 36246 36249 28
29000 36246 36250 28
29001 36251 36252 28
29002 36251 36253 28
29003 36251 36254 28
29004 36251 36255 28
29005 36256 36257 28
29006 36256 36258 28
29007 36256 36259 28
29008 36256 36260 28
29009 36261 36262 28
29010 36261 36263 28
29011 36261 36264 28
29012 36261 36265 28
29013 36266 36267 28
29014 36266 36268 28
29015 36266 36269 28
29016 36266 36270 28
29017 36271 36272 28
29018 36271 36273 28
29019 36271 36274 28
29020 36271 36275 28
29021 36276 36277 28
29022 36276 36278 28
29023 36276 36279 28
29024 36276 36280 28
29025 36281 36282 28
29026 36281 36283 28
29027 36281 36284 28
29028 36281 36285 28
29029 36286 36287 28
29030 36286 36288 28
29031 36286 36289 28
29032 36286 36290 28
29033 36291 36292 28
29034 36291 36293 28
29035 36291 36294 28
29036 36291 36295 28
29037 36296 36297 28
29038 36296 36298 28
29039 36296 36299 28
29040 36296 36300 28
29041 36301 36302 28
29042 36301 36303 28
29043 36301 36304 28
29044 36301 36305 28
29045 36306 36307 28
29046 36306 36308 28
29047 36306 36309 28
29048 36306 36310 28
29049 36311 36312 28
29050 36311 36313 28
29051 36311 36314 28
29052 36311 36315 28
29053 36316 36317 28
29054 36316 36318 28
29055 36316 36319 28
29056 36316 36320 28
29057 36321 36322 28
29058 36321 36323 28
29059 36321 36324 28
29060 36321 36325 28
29061 36326 36327 28
29062 36326 36328 28
29063 36326 36329 28
29064 36326 36330 28
29065 36331 36332 28
29066 36331 36333 28
29067 36331 36334 28
29068 36331 36335 28
29069 36336 36337 28
29070 36336 36338 28
29071 36336 36339 28
29072 36336 36340 28
29073 36341 36342 28
29074 36341 36343 28
29075 36341 36344 28
29076 36341 36345 28
29077 36346 36347 28
29078 36346 36348 28
29079 36346 36349 28
29080 36346 36350 28
29081 36351 36352 28
29082 36351 36353 28
29083 36351 36354 28
29084 36351 36355 28
29085 36356 36357 28
29086 36356 36358 28
29087 36356 36359 28
29088 36356 36360 28
29089 36361 36362 28
29090 36361 36363 28
29091 36361 36364 28
29092 36361 36365 28
29093 36366 36367 28
29094 36366 36368 28
29095 36366 36369 28
29096 36366 36370 28
29097 36371 36372 28
29098 36371 36373 28
29099 36371 36374 28
29100 36371 36375 28
29101 36376 36377 28
29102 36376 36378 28
29103 36376 36379 28
29104 36376 36380 28
29105 36381 36382 28
29106 36381 36383 28
29107 36381 36384 28
29108 36381 36385 28
29109 36386 36387 28
29110 36386 36388 28
29111 36386 36389 28
29112 36386 36390 28
29113 36391 36392 28
29114 36391 36393 28
29115 36391 36394 28
29116 36391 36395 28
29117 36396 36397 28
29118 36396 36398 28
29119 36396 36399 28
29120 36396 36400 28
29121 36401 36402 28
29122 36401 36403 28
29123 36401 36404 28
29124 36401 36405 28
29125 36406 36407 28
29126 36406 36408 28
29127 36406 36409 28
29128 36406 36410 28
29129 36411 36412 28
29130 36411 36413 28
29131 36411 36414 28
29132 36411 36415 28
29133 36416 36417 28
29134 36416 36418 28
29135 36416 36419 28
29136 36416 36420 28
29137 36421 36422 28
29138 36421 36423 28
29139 36421 36424 28
29140 36421 36425 28
29141 36426 36427 28
29142 36426 36428 28
29143 36426 36429 28
29144 36426 36430 28
29145 36431 36432 28
29146 36431 36433 28
29147 36431 36434 28
29148 36431 36435 28
29149 36436 36437 28
29150 36436 36438 28
29151 36436 36439 28
29152 36436 36440 28
29153 36441 36442 28
29154 36441 36443 28
29155 36441 36444 28
29156 36441 36445 28
29157 36446 36447 28
29158 36446 36448 28
29159 36446 36449 28
29160 36446 36450 28
29161 36451 36452 28
29162 36451 36453 28
29163 36451 36454 28
29164 36451 36455 28
29165 36456 36457 28
29166 36456 36458 28
29167 36456 36459 28
29168 36456 36460 28
29169 36461 36462 28
29170 36461 36463 28
29171 36461 36464 28
29172 36461 36465 28
29173 36466 36467 28
29174 36466 36468 28
29175 36466 36469 28
29176 36466 36470 28
29177 36471 36472 28
29178 36471 36473 28
29179 36471 36474 28
29180 36471 36475 28
29181 36476 36477 28
29182 36476 36478 28
29183 36476 36479 28
29184 36476 36480 28
29185 36481 36482 28
29186 36481 36483 28
29187 36481 36484 28
29188 36481 36485 28
29189 36486 36487 28
29190 36486 36488 28
29191 36486 36489 28
29192 36486 36490 28
29193 36491 36492 28
29194 36491 36493 28
29195 36491 36494 28
29196 36491 36495 28
29197 36496 36497 28
29198 36496 36498 28
29199 36496 36499 28
29200 36496 36500 28
29201 36501 36502 28
29202 36501 36503 28
29203 36501 36504 28
29204 36501 36505 28
29205 36506 36507 28
29206 36506 36508 28
29207 36506 36509 28
29208 36506 36510 28
29209 36511 36512 28
29210 36511 36513 28
29211 36511 36514 28
29212 36511 36515 28
29213 36516 36517 28
29214 36516 36518 28
29215 36516 36519 28
29216 36516 36520 28
29217 36521 36522 28
29218 36521 36523 28
29219 36521 36524 28
29220 36521 36525 28
29221 36526 36527 28
29222 36526 36528 28
29223 36526 36529 28
29224 36526 36530 28
29225 36531 36532 28
29226 36531 36533 28
29227 36531 36534 28
29228 36531 36535 28
29229 36536 36537 28
29230 36536 36538 28
29231 36536 36539 28
29232 36536 36540 28
29233 36541 36542 28
29234 36541 36543 28
29235 36541 36544 28
29236 36541 36545 28
29237 36546 36547 28
29238 36546 36548 28
29239 36546 36549 28
29240 36546 36550 28
29241 36551 36552 28
29242 36551 36553 28
29243 36551 36554 28
29244 36551 36555 28
29245 36556 36557 28
29246 36556 36558 28
29247 36556 36559 28
29248 36556 36560 28
29249 36561 36562 28
29250 36561 36563 28
29251 36561 36564 28
29252 36561 36565 28
29253 36566 36567 28
29254 36566 36568 28
29255 36566 36569 28
29256 36566 36570 28
29257 36571 36572 28
29258 36571 36573 28
29259 36571 36574 28
29260 36571 36575 28
29261 36576 36577 28
29262 36576 36578 28
29263 36576 36579 28
29264 36576 36580 28
29265 36581 36582 28
29266 36581 36583 28
29267 36581 36584 28
29268 36581 36585 28
29269 36586 36587 28
29270 36586 36588 28
29271 36586 36589 28
29272 36586 36590 28
29273 36591 36592 28
29274 36591 36593 28
29275 36591 36594 28
29276 36591 36595 28
29277 36596 36597 28
29278 36596 36598 28
29279 36596 36599 28
29280 36596 36600 28
29281 36601 36602 28
29282 36601 36603 28
29283 36601 36604 28
29284 36601 36605 28
29285 36606 36607 28
29286 36606 36608 28
29287 36606 36609 28
29288 36606 36610 28
29289 36611 36612 28
29290 36611 36613 28
29291 36611 36614 28
29292 36611 36615 28
29293 36616 36617 28
29294 36616 36618 28
29295 36616 36619 28
29296 36616 36620 28
29297 36621 36622 28
29298 36621 36623 28
29299 36621 36624 28
29300 36621 36625 28
29301 36626 36627 28
29302 36626 36628 28
29303 36626 36629 28
29304 36626 36630 28
29305 36631 36632 28
29306 36631 36633 28
29307 36631 36634 28
29308 36631 36635 28
29309 36636 36637 28
29310 36636 36638 28
29311 36636 36639 28
29312 36636 36640 28
29313 36641 36642 28
29314 36641 36643 28
29315 36641 36644 28
29316 36641 36645 28
29317 36646 36647 28
29318 36646 36648 28
29319 36646 36649 28
29320 36646 36650 28
29321 36651 36652 28
29322 36651 36653 28
29323 36651 36654 28
29324 36651 36655 28
29325 36656 36657 28
29326 36656 36658 28
29327 36656 36659 28
29328 36656 36660 28
29329 36661 36662 28
29330 36661 36663 28
29331 36661 36664 28
29332 36661 36665 28
29333 36666 36667 28
29334 36666 36668 28
29335 36666 36669 28
29336 36666 36670 28
29337 36671 36672 28
29338 36671 36673 28
29339 36671 36674 28
29340 36671 36675 28
29341 36676 36677 28
29342 36676 36678 28
29343 36676 36679 28
29344 36676 36680 28
29345 36681 36682 28
29346 36681 36683 28
29347 36681 36684 28
29348 36681 36685 28
29349 36686 36687 28
29350 36686 36688 28
29351 36686 36689 28
29352 36686 36690 28
29353 36691 36692 28
29354 36691 36693 28
29355 36691 36694 28
29356 36691 36695 28
29357 36696 36697 28
29358 36696 36698 28
29359 36696 36699 28
29360 36696 36700 28
29361 36701 36702 28
29362 36701 36703 28
29363 36701 36704 28
29364 36701 36705 28
29365 36706 36707 28
29366 36706 36708 28
29367 36706 36709 28
29368 36706 36710 28
29369 36711 36712 28
29370 36711 36713 28
29371 36711 36714 28
29372 36711 36715 28
29373 36716 36717 28
29374 36716 36718 28
29375 36716 36719 28
29376 36716 36720 28
29377 36721 36722 28
29378 36721 36723 28
29379 36721 36724 28
29380 36721 36725 28
29381 36726 36727 28
29382 36726 36728 28
29383 36726 36729 28
29384 36726 36730 28
29385 36731 36732 28
29386 36731 36733 28
29387 36731 36734 28
29388 36731 36735 28
29389 36736 36737 28
29390 36736 36738 28
29391 36736 36739 28
29392 36736 36740 28
29393 36741 36742 28
29394 36741 36743 28
29395 36741 36744 28
29396 36741 36745 28
29397 36746 36747 28
29398 36746 36748 28
29399 36746 36749 28
29400 36746 36750 28
29401 36751 36752 28
29402 36751 36753 28
29403 36751 36754 28
29404 36751 36755 28
29405 36756 36757 28
29406 36756 36758 28
29407 36756 36759 28
29408 36756 36760 28
29409 36761 36762 28
29410 36761 36763 28
29411 36761 36764 28
29412 36761 36765 28
29413 36766 36767 28
29414 36766 36768 28
29415 36766 36769 28
29416 36766 36770 28
29417 36771 36772 28
29418 36771 36773 28
29419 36771 36774 28
29420 36771 36775 28
29421 36776 36777 28
29422 36776 36778 28
29423 36776 36779 28
29424 36776 36780 28
29425 36781 36782 28
29426 36781 36783 28
29427 36781 36784 28
29428 36781 36785 28
29429 36786 36787 28
29430 36786 36788 28
29431 36786 36789 28
29432 36786 36790 28
29433 36791 36792 28
29434 36791 36793 28
29435 36791 36794 28
29436 36791 36795 28
29437 36796 36797 28
29438 36796 36798 28
29439 36796 36799 28
29440 36796 36800 28
29441 36801 36802 28
29442 36801 36803 28
29443 36801 36804 28
29444 36801 36805 28
29445 36806 36807 28
29446 36806 36808 28
29447 36806 36809 28
29448 36806 36810 28
29449 36811 36812 28
29450 36811 36813 28
29451 36811 36814 28
29452 36811 36815 28
29453 36816 36817 28
29454 36816 36818 28
29455 36816 36819 28
29456 36816 36820 28
29457 36821 36822 28
29458 36821 36823 28
29459 36821 36824 28
29460 36821 36825 28
29461 36826 36827 28
29462 36826 36828 28
29463 36826 36829 28
29464 36826 36830 28
29465 36831 36832 28
29466 36831 36833 28
29467 36831 36834 28
29468 36831 36835 28
29469 36836 36837 28
29470 36836 36838 28
29471 36836 36839 28
29472 36836 36840 28
29473 36841 36842 28
29474 36841 36843 28
29475 36841 36844 28
29476 36841 36845 28
29477 36846 36847 28
29478 36846 36848 28
29479 36846 36849 28
29480 36846 36850 28
29481 36851 36852 28
29482 36851 36853 28
29483 36851 36854 28
29484 36851 36855 28
29485 36856 36857 28
29486 36856 36858 28
29487 36856 36859 28
29488 36856 36860 28
29489 36861 36862 28
29490 36861 36863 28
29491 36861 36864 28
29492 36861 36865 28
29493 36866 36867 28
29494 36866 36868 28
29495 36866 36869 28
29496 36866 36870 28
29497 36871 36872 28
29498 36871 36873 28
29499 36871 36874 28
29500 36871 36875 28
29501 36876 36877 28
29502 36876 36878 28
29503 36876 36879 28
29504 36876 36880 28
29505 36881 36882 28
29506 36881 36883 28
29507 36881 36884 28
29508 36881 36885 28
29509 36886 36887 28
29510 36886 36888 28
29511 36886 36889 28
29512 36886 36890 28
29513 36891 36892 28
29514 36891 36893 28
29515 36891 36894 28
29516 36891 36895 28
29517 36896 36897 28
29518 36896 36898 28
29519 36896 36899 28
29520 36896 36900 28
29521 36901 36902 28
29522 36901 36903 28
29523 36901 36904 28
29524 36901 36905 28
29525 36906 36907 28
29526 36906 36908 28
29527 36906 36909 28
29528 36906 36910 28
29529 36911 36912 28
29530 36911 36913 28
29531 36911 36914 28
29532 36911 36915 28
29533 36916 36917 28
29534 36916 36918 28
29535 36916 36919 28
29536 36916 36920 28
29537 36921 36922 28
29538 36921 36923 28
29539 36921 36924 28
29540 36921 36925 28
29541 36926 36927 28
29542 36926 36928 28
29543 36926 36929 28
29544 36926 36930 28
29545 36931 36932 28
29546 36931 36933 28
29547 36931 36934 28
29548 36931 36935 28
29549 36936 36937 28
29550 36936 36938 28
29551 36936 36939 28
29552 36936 36940 28
29553 36941 36942 28
29554 36941 36943 28
29555 36941 36944 28
29556 36941 36945 28
29557 36946 36947 28
29558 36946 36948 28
29559 36946 36949 28
29560 36946 36950 28
29561 36951 36952 28
29562 36951 36953 28
29563 36951 36954 28
29564 36951 36955 28
29565 36956 36957 28
29566 36956 36958 28
29567 36956 36959 28
29568 36956 36960 28
29569 36961 36962 28
29570 36961 36963 28
29571 36961 36964 28
29572 36961 36965 28
29573 36966 36967 28
29574 36966 36968 28
29575 36966 36969 28
29576 36966 36970 28
29577 36971 36972 28
29578 36971 36973 28
29579 36971 36974 28
29580 36971 36975 28
29581 36976 36977 28
29582 36976 36978 28
29583 36976 36979 28
29584 36976 36980 28
29585 36981 36982 28
29586 36981 36983 28
29587 36981 36984 28
29588 36981 36985 28
29589 36986 36987 28
29590 36986 36988 28
29591 36986 36989 28
29592 36986 36990 28
29593 36991 36992 28
29594 36991 36993 28
29595 36991 36994 28
29596 36991 36995 28
29597 36996 36997 28
29598 36996 36998 28
29599 36996 36999 28
29600 36996 37000 28
29601 37001 37002 28
29602 37001 37003 28
29603 37001 37004 28
29604 37001 37005 28
29605 37006 37007 28
29606 37006 37008 28
29607 37006 37009 28
29608 37006 37010 28
29609 37011 37012 28
29610 37011 37013 28
29611 37011 37014 28
29612 37011 37015 28
29613 37016 37017 28
29614 37016 37018 28
29615 37016 37019 28
29616 37016 37020 28
29617 37021 37022 28
29618 37021 37023 28
29619 37021 37024 28
29620 37021 37025 28
29621 37026 37027 28
29622 37026 37028 28
29623 37026 37029 28
29624 37026 37030 28
29625 37031 37032 28
29626 37031 37033 28
29627 37031 37034 28
29628 37031 37035 28
29629 37036 37037 28
29630 37036 37038 28
29631 37036 37039 28
29632 37036 37040 28
29633 37041 37042 28
29634 37041 37043 28
29635 37041 37044 28
29636 37041 37045 28
29637 37046 37047 28
29638 37046 37048 28
29639 37046 37049 28
29640 37046 37050 28
29641 37051 37052 28
29642 37051 37053 28
29643 37051 37054 28
29644 37051 37055 28
29645 37056 37057 28
29646 37056 37058 28
29647 37056 37059 28
29648 37056 37060 28
29649 37061 37062 28
29650 37061 37063 28
29651 37061 37064 28
29652 37061 37065 28
29653 37066 37067 28
29654 37066 37068 28
29655 37066 37069 28
29656 37066 37070 28
29657 37071 37072 28
29658 37071 37073 28
29659 37071 37074 28
29660 37071 37075 28
29661 37076 37077 28
29662 37076 37078 28
29663 37076 37079 28
29664 37076 37080 28
29665 37081 37082 28
29666 37081 37083 28
29667 37081 37084 28
29668 37081 37085 28
29669 37086 37087 28
29670 37086 37088 28
29671 37086 37089 28
29672 37086 37090 28
29673 37091 37092 28
29674 37091 37093 28
29675 37091 37094 28
29676 37091 37095 28
29677 37096 37097 28
29678 37096 37098 28
29679 37096 37099 28
29680 37096 37100 28
29681 37101 37102 28
29682 37101 37103 28
29683 37101 37104 28
29684 37101 37105 28
29685 37106 37107 28
29686 37106 37108 28
29687 37106 37109 28
29688 37106 37110 28
29689 37111 37112 28
29690 37111 37113 28
29691 37111 37114 28
29692 37111 37115 28
29693 37116 37117 28
29694 37116 37118 28
29695 37116 37119 28
29696 37116 37120 28
29697 37121 37122 28
29698 37121 37123 28
29699 37121 37124 28
29700 37121 37125 28
29701 37126 37127 28
29702 37126 37128 28
29703 37126 37129 28
29704 37126 37130 28
29705 37131 37132 28
29706 37131 37133 28
29707 37131 37134 28
29708 37131 37135 28
29709 37136 37137 28
29710 37136 37138 28
29711 37136 37139 28
29712 37136 37140 28
29713 37141 37142 28
29714 37141 37143 28
29715 37141 37144 28
29716 37141 37145 28
29717 37146 37147 28
29718 37146 37148 28
29719 37146 37149 28
29720 37146 37150 28
29721 37151 37152 28
29722 37151 37153 28
29723 37151 37154 28
29724 37151 37155 28
29725 37156 37157 28
29726 37156 37158 28
29727 37156 37159 28
29728 37156 37160 28
29729 37161 37162 28
29730 37161 37163 28
29731 37161 37164 28
29732 37161 37165 28
29733 37166 37167 28
29734 37166 37168 28
29735 37166 37169 28
29736 37166 37170 28
29737 37171 37172 28
29738 37171 37173 28
29739 37171 37174 28
29740 37171 37175 28
29741 37176 37177 28
29742 37176 37178 28
29743 37176 37179 28
29744 37176 37180 28
29745 37181 37182 28
29746 37181 37183 28
29747 37181 37184 28
29748 37181 37185 28
29749 37186 37187 28
29750 37186 37188 28
29751 37186 37189 28
29752 37186 37190 28
29753 37191 37192 28
29754 37191 37193 28
29755 37191 37194 28
29756 37191 37195 28
29757 37196 37197 28
29758 37196 37198 28
29759 37196 37199 28
29760 37196 37200 28
29761 37201 37202 28
29762 37201 37203 28
29763 37201 37204 28
29764 37201 37205 28
29765 37206 37207 28
29766 37206 37208 28
29767 37206 37209 28
29768 37206 37210 28
29769 37211 37212 28
29770 37211 37213 28
29771 37211 37214 28
29772 37211 37215 28
29773 37216 37217 28
29774 37216 37218 28
29775 37216 37219 28
29776 37216 37220 28
29777 37221 37222 28
29778 37221 37223 28
29779 37221 37224 28
29780 37221 37225 28
29781 37226 37227 28
29782 37226 37228 28
29783 37226 37229 28
29784 37226 37230 28
29785 37231 37232 28
29786 37231 37233 28
29787 37231 37234 28
29788 37231 37235 28
29789 37236 37237 28
29790 37236 37238 28
29791 37236 37239 28
29792 37236 37240 28
29793 37241 37242 28
29794 37241 37243 28
29795 37241 37244 28
29796 37241 37245 28
29797 37246 37247 28
29798 37246 37248 28
29799 37246 37249 28
29800 37246 37250 28
29801 37251 37252 28
29802 37251 37253 28
29803 37251 37254 28
29804 37251 37255 28
29805 37256 37257 28
29806 37256 37258 28
29807 37256 37259 28
29808 37256 37260 28
29809 37261 37262 28
29810 37261 37263 28
29811 37261 37264 28
29812 37261 37265 28
29813 37266 37267 28
29814 37266 37268 28
29815 37266 37269 28
29816 37266 37270 28
29817 37271 37272 28
29818 37271 37273 28
29819 37271 37274 28
29820 37271 37275 28
29821 37276 37277 28
29822 37276 37278 28
29823 37276 37279 28
29824 37276 37280 28
29825 37281 37282 28
29826 37281 37283 28
29827 37281 37284 28
29828 37281 37285 28
29829 37286 37287 28
29830 37286 37288 28
29831 37286 37289 28
29832 37286 37290 28
29833 37291 37292 28
29834 37291 37293 28
29835 37291 37294 28
29836 37291 37295 28
29837 37296 37297 28
29838 37296 37298 28
29839 37296 37299 28
29840 37296 37300 28
29841 37301 37302 28
29842 37301 37303 28
29843 37301 37304 28
29844 37301 37305 28
29845 37306 37307 28
29846 37306 37308 28
29847 37306 37309 28
29848 37306 37310 28
29849 37311 37312 28
29850 37311 37313 28
29851 37311 37314 28
29852 37311 37315 28
29853 37316 37317 28
29854 37316 37318 28
29855 37316 37319 28
29856 37316 37320 28
29857 37321 37322 28
29858 37321 37323 28
29859 37321 37324 28
29860 37321 37325 28
29861 37326 37327 28
29862 37326 37328 28
29863 37326 37329 28
29864 37326 37330 28
29865 37331 37332 28
29866 37331 37333 28
29867 37331 37334 28
29868 37331 37335 28
29869 37336 37337 28
29870 37336 37338 28
29871 37336 37339 28
29872 37336 37340 28
29873 37341 37342 28
29874 37341 37343 28
29875 37341 37344 28
29876 37341 37345 28
29877 37346 37347 28
29878 37346 37348 28
29879 37346 37349 28
29880 37346 37350 28
29881 37351 37352 28
29882 37351 37353 28
29883 37351 37354 28
29884 37351 37355 28
29885 37356 37357 28
29886 37356 37358 28
29887 37356 37359 28
29888 37356 37360 28
29889 37361 37362 28
29890 37361 37363 28
29891 37361 37364 28
29892 37361 37365 28
29893 37366 37367 28
29894 37366 37368 28
29895 37366 37369 28
29896 37366 37370 28
29897 37371 37372 28
29898 37371 37373 28
29899 37371 37374 28
29900 37371 37375 28
29901 37376 37377 28
29902 37376 37378 28
29903 37376 37379 28
29904 37376 37380 28
29905 37381 37382 28
29906 37381 37383 28
29907 37381 37384 28
29908 37381 37385 28
29909 37386 37387 28
29910 37386 37388 28
29911 37386 37389 28
29912 37386 37390 28
29913 37391 37392 28
29914 37391 37393 28
29915 37391 37394 28
29916 37391 37395 28
29917 37396 37397 28
29918 37396 37398 28
29919 37396 37399 28
29920 37396 37400 28
29921 37401 37402 28
29922 37401 37403 28
29923 37401 37404 28
29924 37401 37405 28
29925 37406 37407 28
29926 37406 37408 28
29927 37406 37409 28
29928 37406 37410 28
29929 37411 37412 28
29930 37411 37413 28
29931 37411 37414 28
29932 37411 37415 28
29933 37416 37417 28
29934 37416 37418 28
29935 37416 37419 28
29936 37416 37420 28
29937 37421 37422 28
29938 37421 37423 28
29939 37421 37424 28
29940 37421 37425 28
29941 37426 37427 28
29942 37426 37428 28
29943 37426 37429 28
29944 37426 37430 28
29945 37431 37432 28
29946 37431 37433 28
29947 37431 37434 28
29948 37431 37435 28
29949 37436 37437 28
29950 37436 37438 28
29951 37436 37439 28
29952 37436 37440 28
29953 37441 37442 28
29954 37441 37443 28
29955 37441 37444 28
29956 37441 37445 28
29957 37446 37447 28
29958 37446 37448 28
29959 37446 37449 28
29960 37446 37450 28
29961 37451 37452 28
29962 37451 37453 28
29963 37451 37454 28
29964 37451 37455 28
29965 37456 37457 28
29966 37456 37458 28
29967 37456 37459 28
29968 37456 37460 28
29969 37461 37462 28
29970 37461 37463 28
29971 37461 37464 28
29972 37461 37465 28
29973 37466 37467 28
29974 37466 37468 28
29975 37466 37469 28
29976 37466 37470 28
29977 37471 37472 28
29978 37471 37473 28
29979 37471 37474 28
29980 37471 37475 28
29981 37476 37477 28
29982 37476 37478 28
29983 37476 37479 28
29984 37476 37480 28
29985 37481 37482 28
29986 37481 37483 28
29987 37481 37484 28
29988 37481 37485 28
29989 37486 37487 28
29990 37486 37488 28
29991 37486 37489 28
29992 37486 37490 28
29993 37491 37492 28
29994 37491 37493 28
29995 37491 37494 28
29996 37491 37495 28
29997 37496 37497 28
29998 37496 37498 28
29999 37496 37499 28
30000 37496 37500 28
@<TRIPOS>CRYSIN
137.05573131587175 137.05573131587175 137.05573131587175 90 90 90 1 1
