@<TRIPOS>MOLECULE
mol
37500 30000
SMALL
USER_CHARGES


@<TRIPOS>ATOM
1 C 3.7901253394776404 94.43571729399005 27.16025902343742 C 0.0 **** -0.24
2 H 2.852419874261386 94.38510216474204 27.713252706797363 H 0.0 **** 0.06
3 H 4.346716873348555 93.50972225514238 27.30302630408167 H 0.0 **** 0.06
4 H 4.381362745660965 95.27559366366788 27.524722279765314 H 0.0 **** 0.06
5 H 3.578705309785903 94.57284101517455 26.09962612518146 H 0.0 **** 0.06
6 C 40.06668257004213 69.34971780222335 43.79513264439406 C 0.0 **** -0.24
7 H 39.472728089144496 68.79284088195422 43.070758008912264 H 0.0 **** 0.06
8 H 41.12578620448019 69.15016099557417 43.62834801873392 H 0.0 **** 0.06
9 H 39.79341688900435 69.03923545114509 44.804034569591884 H 0.0 **** 0.06
10 H 39.87471074955838 70.41667626755552 43.67838519584098 H 0.0 **** 0.06
11 C 3.945658627507129 97.52939340490951 24.26009437634135 C 0.0 **** -0.24
12 H 4.951725180489177 97.69843031103767 23.876638946038838 H 0.0 **** 0.06
13 H 3.7491352339078787 98.2205750158289 25.080666186147766 H 0.0 **** 0.06
14 H 3.8621799457473003 96.50447270782348 24.62161387156366 H 0.0 **** 0.06
15 H 3.2205603697334197 97.69472225789212 23.463375264503455 H 0.0 **** 0.06
16 C 45.18875064050485 43.939926031933936 25.651763877688623 C 0.0 **** -0.24
17 H 45.60560552842759 44.829122267632954 26.124545559376493 H 0.0 **** 0.06
18 H 45.107336257313534 43.140722137044975 26.388617536009193 H 0.0 **** 0.06
19 H 45.84186329478513 43.62121550349639 24.838792179009758 H 0.0 **** 0.06
20 H 44.199934357830216 44.170170067613356 25.254323884951702 H 0.0 **** 0.06
21 C 108.63508537647446 94.72713570432207 125.73953807792113 C 0.0 **** -0.24
22 H 109.35728494278692 95.30529896077822 126.31569820178906 H 0.0 **** 0.06
23 H 108.46334918319162 93.7679705441686 126.22916181894857 H 0.0 **** 0.06
24 H 109.0229963764098 94.55855939059448 124.73551741689067 H 0.0 **** 0.06
25 H 107.69588199651514 95.27689944744272 125.67890555505322 H 0.0 **** 0.06
26 C 21.5941855672487 8.886828942901865 27.319575115279974 C 0.0 **** -0.24
27 H 21.30318078699395 9.339658093111861 28.268354620726342 H 0.0 **** 0.06
28 H 22.320760250542662 8.09505920198253 27.503456614362527 H 0.0 **** 0.06
29 H 22.03758815511611 9.645840407058877 26.676296697341158 H 0.0 **** 0.06
30 H 20.713532889318117 8.467440810848235 26.834028130707757 H 0.0 **** 0.06
31 C 82.15612775436495 25.56975898433916 21.935354822229954 C 0.0 **** -0.24
32 H 82.38217513389459 26.522144319250856 22.41567999061718 H 0.0 **** 0.06
33 H 82.67514041690715 24.766890066218252 22.458623212431576 H 0.0 **** 0.06
34 H 82.48430722966812 25.599733480618397 20.89667190843656 H 0.0 **** 0.06
35 H 81.0808592400573 25.391890179864276 21.97194499011181 H 0.0 **** 0.06
36 C 42.348272243132726 91.47460797342646 128.90016231188832 C 0.0 **** -0.24
37 H 41.50851921532572 91.76933452928697 129.5296999151983 H 0.0 **** 0.06
38 H 42.91556612418984 92.36007277880057 128.61339724999658 H 0.0 **** 0.06
39 H 41.97391723514252 90.97655540897304 128.0052760107359 H 0.0 **** 0.06
40 H 42.99378670939319 90.79144131957636 129.45278053921302 H 0.0 **** 0.06
41 C 87.93553310587023 41.5335662953716 81.25692385715791 C 0.0 **** -0.24
42 H 87.6990546431415 41.62086204250245 82.31653546481965 H 0.0 **** 0.06
43 H 87.17486560795615 42.04837044986664 80.6697125412482 H 0.0 **** 0.06
44 H 87.9615834605205 40.48036215309875 80.97584392314127 H 0.0 **** 0.06
45 H 88.9094102121253 41.98423545443342 81.06456693594339 H 0.0 **** 0.06
46 C 104.51206895174602 105.05588090169854 67.44259594428681 C 0.0 **** -0.24
47 H 105.22458294266198 104.36455807654298 66.99199738233634 H 0.0 **** 0.06
48 H 104.35399609859502 105.90130349594784 66.77287578764125 H 0.0 **** 0.06
49 H 104.90613506820705 105.41355075951978 68.39365620397481 H 0.0 **** 0.06
50 H 103.56569134929646 104.54309104857325 67.61120320623084 H 0.0 **** 0.06
51 C 39.56302983324505 23.651108752297958 6.550841959395342 C 0.0 **** -0.24
52 H 40.25250762000462 23.209775687838004 7.270578703986587 H 0.0 **** 0.06
53 H 40.108034533090546 23.925267654157807 5.647912721751425 H 0.0 **** 0.06
54 H 39.106458168212285 24.541344631212183 6.985434828551405 H 0.0 **** 0.06
55 H 38.785492158917215 22.928615004049107 6.3026879333732495 H 0.0 **** 0.06
56 C 110.7828935686348 45.19425399268155 78.72089260434245 C 0.0 **** -0.24
57 H 109.72903109522218 45.21575473906276 79.00064990027087 H 0.0 **** 0.06
58 H 111.34646967240698 45.8543080301782 79.38028180006029 H 0.0 **** 0.06
59 H 110.89076287922168 45.529866848952 77.68980742194381 H 0.0 **** 0.06
60 H 111.16129251627359 44.17632052305623 78.81395792411755 H 0.0 **** 0.06
61 C 74.87272109740678 59.381700216816284 35.099175696571024 C 0.0 **** -0.24
62 H 74.37652346677616 58.45132143352515 35.37570907784729 H 0.0 **** 0.06
63 H 75.80609643749287 59.47383629600891 35.65316288227726 H 0.0 **** 0.06
64 H 74.2229971284954 60.22357509143248 35.33734559882518 H 0.0 **** 0.06
65 H 75.08299850785001 59.37570940574511 34.02934952918454 H 0.0 **** 0.06
66 C 49.353974463844395 108.06788116297652 2.744014286560109 C 0.0 **** -0.24
67 H 48.332404516748966 108.36146305962424 2.986818773754557 H 0.0 **** 0.06
68 H 49.92729948714663 107.95478162466087 3.6650330024124287 H 0.0 **** 0.06
69 H 49.813835532135556 108.8348037714469 2.1205682241565498 H 0.0 **** 0.06
70 H 49.34053693258073 107.12037600820483 2.205798848998473 H 0.0 **** 0.06
71 C 112.73759031221175 82.37981637758944 49.830196439985855 C 0.0 **** -0.24
72 H 111.80389795439862 82.90836615756153 49.63767322891022 H 0.0 **** 0.06
73 H 112.9091131899088 82.32670884623867 50.905290370874496 H 0.0 **** 0.06
74 H 113.56157821503047 82.91268049486062 49.3559272938017 H 0.0 **** 0.06
75 H 112.6745251881569 81.37104804899963 49.42237698470743 H 0.0 **** 0.06
76 C 41.86339765973909 8.79359208644945 19.108528362474026 C 0.0 **** -0.24
77 H 41.253850944666254 9.440581374409192 19.74042646165777 H 0.0 **** 0.06
78 H 41.64050813976573 7.75075811350456 19.333608396946005 H 0.0 **** 0.06
79 H 42.918950957542364 8.989702471694784 19.29967878182758 H 0.0 **** 0.06
80 H 41.64020175491251 8.995512641629716 18.060862789834253 H 0.0 **** 0.06
81 C 19.751567045746114 39.00287153644325 89.68076072025775 C 0.0 **** -0.24
82 H 20.536212470640123 38.25040392008833 89.77064740923288 H 0.0 **** 0.06
83 H 19.845443749190707 39.72444982112006 90.49196191697854 H 0.0 **** 0.06
84 H 18.777071272377384 38.517604371868345 89.734670203713 H 0.0 **** 0.06
85 H 19.849426892140613 39.51573958047442 88.72385827014187 H 0.0 **** 0.06
86 C 87.60489871875521 22.394732623017305 14.308649848433031 C 0.0 **** -0.24
87 H 88.42049349682273 23.02870865761733 14.655510018683902 H 0.0 **** 0.06
88 H 86.93683763344335 22.97777757200609 13.674110261550176 H 0.0 **** 0.06
89 H 87.05162106530247 22.013972765668655 15.167517285794208 H 0.0 **** 0.06
90 H 88.0109917926809 21.55877839540065 13.739130390269409 H 0.0 **** 0.06
91 C 93.14114820141833 93.8419252590638 23.709591883717707 C 0.0 **** -0.24
92 H 92.50828444565155 92.95519381701007 23.67063936783265 H 0.0 **** 0.06
93 H 92.63310197151873 94.67238550169884 23.217427897296602 H 0.0 **** 0.06
94 H 94.08276994950029 93.63880085777558 23.200168294940994 H 0.0 **** 0.06
95 H 93.33868248867668 94.10243346464986 24.74883347399961 H 0.0 **** 0.06
96 C 42.175755887075525 126.17235446671889 12.904874723872297 C 0.0 **** -0.24
97 H 42.136529996761716 125.59061894734086 11.98305170682832 H 0.0 **** 0.06
98 H 41.6464512370114 125.63775765682624 13.693739298427033 H 0.0 **** 0.06
99 H 41.70497074470588 127.14207631716991 12.742525204798426 H 0.0 **** 0.06
100 H 43.215299253499566 126.31742971275096 13.197251502078046 H 0.0 **** 0.06
101 C 66.23597644413232 100.36310707206249 81.2030847016265 C 0.0 **** -0.24
102 H 65.5604074734247 100.04956819706842 81.99825031142609 H 0.0 **** 0.06
103 H 66.99309381280301 101.03193210294708 81.61182154942344 H 0.0 **** 0.06
104 H 65.66935834515269 100.88331039860853 80.4300963713062 H 0.0 **** 0.06
105 H 66.71911337756714 99.48669609555978 80.77152595205342 H 0.0 **** 0.06
106 C 71.70702100866922 27.32235130221622 124.7882290693193 C 0.0 **** -0.24
107 H 71.63961117238372 28.39724955147763 124.61670295364874 H 0.0 **** 0.06
108 H 72.30766350280553 26.866172471338217 124.00128247576109 H 0.0 **** 0.06
109 H 70.70725971360764 26.890478076763642 124.78027748617774 H 0.0 **** 0.06
110 H 72.17452720361996 27.13796069797681 125.75607285758167 H 0.0 **** 0.06
111 C 84.9485223788472 46.5326282771818 84.07598254394622 C 0.0 **** -0.24
112 H 84.04809495160049 46.73854925506339 83.49697003370139 H 0.0 **** 0.06
113 H 84.68590787930299 46.42800928408383 85.12874413474103 H 0.0 **** 0.06
114 H 85.6532665569284 47.35544444662597 83.95689580436553 H 0.0 **** 0.06
115 H 85.40471735350599 45.6079028944348 83.72177834549011 H 0.0 **** 0.06
116 C 44.2845354918082 72.94662848414873 95.10623381001696 C 0.0 **** -0.24
117 H 43.43639540792336 73.1297899005722 95.76585700331543 H 0.0 **** 0.06
118 H 44.26009782343826 73.65578942750165 94.27757034201338 H 0.0 **** 0.06
119 H 44.22789437920781 71.93049424330925 94.71610633172364 H 0.0 **** 0.06
120 H 45.21258306039671 73.07116264305623 95.66337505975426 H 0.0 **** 0.06
121 C 118.9294023417387 48.93884208020472 10.404464601199408 C 0.0 **** -0.24
122 H 119.26470726659875 49.2217756313745 9.40655744436566 H 0.0 **** 0.06
123 H 119.06931382300519 47.86644479900178 10.544011630087056 H 0.0 **** 0.06
124 H 117.87297650620377 49.18482161919053 10.515959169414373 H 0.0 **** 0.06
125 H 119.50952705920452 49.48151608157093 11.150921376659682 H 0.0 **** 0.06
126 C 44.06070894317361 122.04416453112287 27.900344429134982 C 0.0 **** -0.24
127 H 44.419020048785654 122.7245861640285 28.673179503704162 H 0.0 **** 0.06
128 H 43.18953833460276 121.50222926089344 28.26948457558052 H 0.0 **** 0.06
129 H 44.84857883468706 121.335668824393 27.645528198941435 H 0.0 **** 0.06
130 H 43.78422167702314 122.61578716714888 27.013650627871606 H 0.0 **** 0.06
131 C 99.18799693513853 98.20626125901745 23.690010209998093 C 0.0 **** -0.24
132 H 99.72412533008254 97.59532269280345 22.9635861622489 H 0.0 **** 0.06
133 H 98.54352582713253 98.91189562307669 23.165372594577065 H 0.0 **** 0.06
134 H 99.90407373277837 98.7538966385459 24.302994710955147 H 0.0 **** 0.06
135 H 98.58074384863724 97.56336240380145 24.32741921155214 H 0.0 **** 0.06
136 C 62.63440316955514 3.9145368766748305 9.595796993737338 C 0.0 **** -0.24
137 H 61.82010592423407 4.551575405707709 9.253045944325436 H 0.0 **** 0.06
138 H 62.33909857324393 2.8681213222712927 9.508091508501934 H 0.0 **** 0.06
139 H 62.861202084561654 4.142343259995442 10.636978022061044 H 0.0 **** 0.06
140 H 63.51806809729159 4.09443875960423 8.983859043498569 H 0.0 **** 0.06
141 C 121.84336171315994 111.6211569738619 65.25056801175808 C 0.0 **** -0.24
142 H 122.13863657307232 111.8232881527671 64.22097818415665 H 0.0 **** 0.06
143 H 122.71683561209502 111.31012203288961 65.82442873885594 H 0.0 **** 0.06
144 H 121.09653668733569 110.82848403651701 65.26561341826613 H 0.0 **** 0.06
145 H 121.42222202272586 112.52545084893856 65.69119992525418 H 0.0 **** 0.06
146 C 6.464803287595007 7.597808397389713 33.76403916117383 C 0.0 **** -0.24
147 H 5.411721196158503 7.85379723381584 33.87879224549479 H 0.0 **** 0.06
148 H 6.63120150318375 7.185623399303267 32.7679233408053 H 0.0 **** 0.06
149 H 6.743073512826552 6.8582696800698955 34.51436215437634 H 0.0 **** 0.06
150 H 7.071838091285159 8.493445973880398 33.89305661593975 H 0.0 **** 0.06
151 C 21.821211955383944 44.27785704877982 71.12887959373451 C 0.0 **** -0.24
152 H 20.818901410698913 44.605993700134604 70.8554196834706 H 0.0 **** 0.06
153 H 21.752303573963957 43.42348602282854 71.80359016651595 H 0.0 **** 0.06
154 H 22.34703220653313 45.092503981276366 71.62699094357792 H 0.0 **** 0.06
155 H 22.366682241041076 43.98825204548541 70.23077181968294 H 0.0 **** 0.06
156 C 29.933904328292726 100.1327951280745 16.158161564180944 C 0.0 **** -0.24
157 H 30.831478664337453 99.7192601020015 16.61696164020543 H 0.0 **** 0.06
158 H 29.05207679029411 99.68810859783507 16.620389434460577 H 0.0 **** 0.06
159 H 29.93628026537874 99.91199734302477 15.090859286995197 H 0.0 **** 0.06
160 H 29.916044418922127 101.21259442884661 16.30558598107524 H 0.0 **** 0.06
161 C 86.12310897219382 102.70370774665352 94.17883443468753 C 0.0 **** -0.24
162 H 85.93234390712124 103.77425016205208 94.24288917594939 H 0.0 **** 0.06
163 H 86.7616260165129 102.39752007225367 95.00802296120077 H 0.0 **** 0.06
164 H 86.62016272112669 102.47998786773258 93.23451748695194 H 0.0 **** 0.06
165 H 85.17846976000257 102.16190717206605 94.22863785695074 H 0.0 **** 0.06
166 C 42.356839491356034 119.94979167626019 62.41244144183898 C 0.0 **** -0.24
167 H 42.18282845696457 118.87786580654145 62.512594466627746 H 0.0 **** 0.06
168 H 42.09592262403399 120.26560174809693 61.4018030702517 H 0.0 **** 0.06
169 H 43.407358315035324 120.16642872085049 62.60146778432082 H 0.0 **** 0.06
170 H 41.73952977327061 120.48645170691343 63.13213938798731 H 0.0 **** 0.06
171 C 123.43722290236515 39.53295932746826 119.10158813235662 C 0.0 **** -0.24
172 H 124.46619569347328 39.56007287128227 118.74306293351754 H 0.0 **** 0.06
173 H 123.13995493695609 38.49884876200895 119.27632099984604 H 0.0 **** 0.06
174 H 122.78012206867781 39.97874203713393 118.35498801896296 H 0.0 **** 0.06
175 H 123.36242515864362 40.094054181534915 120.03337639298324 H 0.0 **** 0.06
176 C 55.075708200777626 43.32104489650629 38.46439319347725 C 0.0 **** -0.24
177 H 55.31281640348607 43.07727935454524 39.50057155545496 H 0.0 **** 0.06
178 H 55.115860876353054 42.41471708682799 37.85992470652808 H 0.0 **** 0.06
179 H 55.80145500112735 44.04114210915506 38.086467202952726 H 0.0 **** 0.06
180 H 54.07589932208464 43.750001711110414 38.411908620752584 H 0.0 **** 0.06
181 C 93.16671097371763 49.88127652527747 50.600571401410335 C 0.0 **** -0.24
182 H 93.20864097407939 49.581286029744334 51.648371541318554 H 0.0 **** 0.06
183 H 93.93876650046009 49.353305752831915 50.04036373664694 H 0.0 **** 0.06
184 H 93.33225886611228 50.955709196631574 50.52396999127835 H 0.0 **** 0.06
185 H 92.18738800073601 49.63418231651079 50.19171764906869 H 0.0 **** 0.06
186 C 115.65793608612464 7.300206910322004 59.614334177346294 C 0.0 **** -0.24
187 H 114.87961103128592 6.879002603203986 60.25168226417749 H 0.0 **** 0.06
188 H 115.54681519163984 8.384428739809948 59.575056765849354 H 0.0 **** 0.06
189 H 115.56655797168995 6.889307354818783 58.6095555994974 H 0.0 **** 0.06
190 H 116.63684557431333 7.049165222982708 60.02212668046154 H 0.0 **** 0.06
191 C 74.47570488043522 108.98409060062322 109.84562986250637 C 0.0 **** -0.24
192 H 74.2818642465843 109.93314378730886 110.34502179564083 H 0.0 **** 0.06
193 H 73.52837898883061 108.48914549469237 109.62798896595919 H 0.0 **** 0.06
194 H 75.07879218587902 108.34828268253732 110.49373437378236 H 0.0 **** 0.06
195 H 75.01236776155702 109.16681665230882 108.9140593207822 H 0.0 **** 0.06
196 C 99.06385193961773 20.740828003166513 50.43185065226916 C 0.0 **** -0.24
197 H 98.09424187761789 20.826253479287686 50.92309735443351 H 0.0 **** 0.06
198 H 99.6539811403029 21.635057363790224 50.63577692343026 H 0.0 **** 0.06
199 H 98.91722275501161 20.63969535343594 49.35555856709536 H 0.0 **** 0.06
200 H 99.58716664738489 19.86377315759691 50.810961337623596 H 0.0 **** 0.06
201 C 107.98131733821025 6.816910552256047 61.61090891270837 C 0.0 **** -0.24
202 H 107.84068315140411 7.667287843737341 60.94377178207111 H 0.0 **** 0.06
203 H 107.37178762435923 5.981251415848334 61.26689610678821 H 0.0 **** 0.06
204 H 107.68107479512268 7.094372640581497 62.6213428169262 H 0.0 **** 0.06
205 H 109.03219094499106 6.525781412268287 61.61080211322118 H 0.0 **** 0.06
206 C 85.48949469875475 1.2864769724540963 108.29879447646522 C 0.0 **** -0.24
207 H 86.52174534491195 1.637756995403123 108.29947672652946 H 0.0 **** 0.06
208 H 85.45338998866328 0.26601515273901555 107.91888589395472 H 0.0 **** 0.06
209 H 84.88662407331128 1.9338700430931226 107.66152473512841 H 0.0 **** 0.06
210 H 85.09810175427833 1.311302488896132 109.31577565808499 H 0.0 **** 0.06
211 C 42.791482965304226 50.355626133710274 113.72582550732396 C 0.0 **** -0.24
212 H 43.08711866961198 50.957639078044906 114.58515979880902 H 0.0 **** 0.06
213 H 43.139919664606964 49.332298040253676 113.8626352507632 H 0.0 **** 0.06
214 H 43.23317522317922 50.77282658457543 112.82094806018866 H 0.0 **** 0.06
215 H 41.70522809317612 50.3606124655698 113.63455683676644 H 0.0 **** 0.06
216 C 86.76392965596611 126.64713245898035 90.94500135449779 C 0.0 **** -0.24
217 H 86.78731917623875 127.71404186355223 90.7238550169235 H 0.0 **** 0.06
218 H 86.86571837664374 126.08121157118345 90.01891168060406 H 0.0 **** 0.06
219 H 85.81681606330662 126.39594518807841 91.42356934924697 H 0.0 **** 0.06
220 H 87.58683512342296 126.3974724874032 91.61591419920656 H 0.0 **** 0.06
221 C 53.29734797700803 31.61925003490458 54.64632149706895 C 0.0 **** -0.24
222 H 52.347573679744116 31.18423887232811 54.335484671002476 H 0.0 **** 0.06
223 H 53.11013695381648 32.53083361323607 55.214517700537485 H 0.0 **** 0.06
224 H 53.89391108522403 31.85613350831042 53.76508703674729 H 0.0 **** 0.06
225 H 53.83688002654712 30.90632759681438 55.269235771880574 H 0.0 **** 0.06
226 C 35.085114555814414 6.196606155260326 49.01395410699553 C 0.0 **** -0.24
227 H 34.43566878453001 7.0281537134681 48.7420933604912 H 0.0 **** 0.06
228 H 35.156419886067226 5.5025652200216655 48.17647443418514 H 0.0 **** 0.06
229 H 34.670203836372536 5.680912751013921 49.87997655266787 H 0.0 **** 0.06
230 H 36.07746662167489 6.575476890066511 49.25829364130243 H 0.0 **** 0.06
231 C 20.356521730233787 105.34154857618086 85.86588608039779 C 0.0 **** -0.24
232 H 19.99229112004577 106.34985788246715 85.66851362391492 H 0.0 **** 0.06
233 H 20.497230704079463 104.81575278050894 84.92133578834643 H 0.0 **** 0.06
234 H 19.62903444686261 104.8052844305351 86.47522218515252 H 0.0 **** 0.06
235 H 21.30677739602269 105.39615331499824 86.39763413777962 H 0.0 **** 0.06
236 C 2.7086034608255716 26.182496275037778 99.68121490466507 C 0.0 **** -0.24
237 H 3.7237586511875804 25.79820993263221 99.59469738136487 H 0.0 **** 0.06
238 H 2.727075679445562 27.147828600866262 100.1885144503718 H 0.0 **** 0.06
239 H 2.1017444514530155 25.481694453598806 100.25488679845931 H 0.0 **** 0.06
240 H 2.279627753778385 26.303093762079037 98.6861131022939 H 0.0 **** 0.06
241 C 41.6124763184655 10.777109298590542 0.7771136850486755 C 0.0 **** -0.24
242 H 40.992948188134264 10.269336585154289 0.03736286190536475 H 0.0 **** 0.06
243 H 41.544479463849996 11.855925648771116 0.6287077764241076 H 0.0 **** 0.06
244 H 42.64776229999089 10.458728945102479 0.6635608633158654 H 0.0 **** 0.06
245 H 41.261445046995135 10.525916092477932 1.7777532111604728 H 0.0 **** 0.06
246 C 115.21575630634129 99.31103814252725 22.62778259021502 C 0.0 **** -0.24
247 H 114.98076478448752 98.24917390014309 22.70140181537147 H 0.0 **** 0.06
248 H 115.28198278767411 99.73853087248239 23.628333186741443 H 0.0 **** 0.06
249 H 114.43260944883474 99.8183113048608 22.06545942861858 H 0.0 **** 0.06
250 H 116.17021716733717 99.43668573006045 22.115304598744245 H 0.0 **** 0.06
251 C 127.49655260226379 19.70901380452699 63.91754304718371 C 0.0 **** -0.24
252 H 127.47434824112821 20.79508434064789 63.83362541130856 H 0.0 **** 0.06
253 H 126.53941748998683 19.30044970589597 63.59370479639627 H 0.0 **** 0.06
254 H 127.67897353107722 19.428993411213924 64.95603366743504 H 0.0 **** 0.06
255 H 128.29343599979586 19.311907374389676 63.2892280229908 H 0.0 **** 0.06
256 C 27.626322883643837 71.55203335497004 102.64012018287741 C 0.0 **** -0.24
257 H 26.82836944329908 71.94021582913388 103.27194615612642 H 0.0 **** 0.06
258 H 27.402349521367974 70.52148894164486 102.36431296149556 H 0.0 **** 0.06
259 H 28.569841927588158 71.58626897201879 103.18454298619324 H 0.0 **** 0.06
260 H 27.705051862186835 72.16036632669767 101.73875441468691 H 0.0 **** 0.06
261 C 109.78961196237924 21.441799600264865 112.71553331127029 C 0.0 **** -0.24
262 H 108.94054889609646 20.90047821502106 112.29876657717165 H 0.0 **** 0.06
263 H 110.40448550537059 21.83255797410535 111.90530998411003 H 0.0 **** 0.06
264 H 110.38410338945158 20.767584198526663 113.33060558672025 H 0.0 **** 0.06
265 H 109.42746809202453 22.26814027495263 113.32785954988657 H 0.0 **** 0.06
266 C 88.66809164353813 70.06271677451784 67.96613660023641 C 0.0 **** -0.24
267 H 88.09274847695619 69.71043331170479 67.10967404830325 H 0.0 **** 0.06
268 H 88.65038635377456 71.15244272286424 67.99142235941059 H 0.0 **** 0.06
269 H 89.69759018988563 69.71711482984912 67.87789572442234 H 0.0 **** 0.06
270 H 88.23049814579664 69.66967779175006 68.88443329622169 H 0.0 **** 0.06
271 C 112.78498335408423 117.52155965092885 94.541618044497 C 0.0 **** -0.24
272 H 112.48393161384618 118.37324313344152 95.15141682354071 H 0.0 **** 0.06
273 H 113.87262125680238 117.44908898486966 94.53201201193644 H 0.0 **** 0.06
274 H 112.42088877698117 117.65788285903528 93.52326466941403 H 0.0 **** 0.06
275 H 112.36216539543719 116.60822844907307 94.95959834817232 H 0.0 **** 0.06
276 C 68.42762407242702 46.59992156214358 9.5772671279301 C 0.0 **** -0.24
277 H 68.80372645694564 47.486913568135805 10.08600437527366 H 0.0 **** 0.06
278 H 67.73406673683928 46.072044338887025 10.23147375007062 H 0.0 **** 0.06
279 H 69.26146188011913 45.94444841696199 9.326099989967986 H 0.0 **** 0.06
280 H 67.91122545071619 46.89727943918112 8.664075868256873 H 0.0 **** 0.06
281 C 33.69582823547144 33.2237419389296 107.1279008175305 C 0.0 **** -0.24
282 H 34.50572329082293 33.95132671420713 107.07135980272027 H 0.0 **** 0.06
283 H 32.95080676885284 33.45020312253474 106.36527980632175 H 0.0 **** 0.06
284 H 33.23366814342684 33.27061302189337 108.11457689841417 H 0.0 **** 0.06
285 H 34.09480255388293 32.22262321382722 106.96183965075481 H 0.0 **** 0.06
286 C 110.63061363528142 29.639725106261892 7.159525136338658 C 0.0 **** -0.24
287 H 110.9408876374417 29.691257476510117 8.20275803504444 H 0.0 **** 0.06
288 H 111.51228389158555 29.645563081082173 6.517599111013652 H 0.0 **** 0.06
289 H 110.00370326379318 30.5009864096494 6.9247722376731815 H 0.0 **** 0.06
290 H 110.06614054280952 28.722976337283725 6.992596330737626 H 0.0 **** 0.06
291 C 37.584518366303996 110.47659445761124 15.014974024359958 C 0.0 **** -0.24
292 H 38.44514676702349 110.76316339414419 14.410423381052652 H 0.0 **** 0.06
293 H 36.713427319675276 110.35411822680763 14.370560736888748 H 0.0 **** 0.06
294 H 37.385035397175244 111.2547675720011 15.752524488570614 H 0.0 **** 0.06
295 H 37.79540122188868 109.53676646284185 15.52460447460345 H 0.0 **** 0.06
296 C 56.23891636362009 48.53238600050702 13.257439506329945 C 0.0 **** -0.24
297 H 55.25740652573778 48.09085906445909 13.428932512001268 H 0.0 **** 0.06
298 H 56.12330484942177 49.5849956281842 12.99977034007469 H 0.0 **** 0.06
299 H 56.73385735110904 48.010026994358604 12.438285065162802 H 0.0 **** 0.06
300 H 56.840987990643214 48.443468690712514 14.161795048228896 H 0.0 **** 0.06
301 C 90.72129314046748 96.8226156713545 53.16895994420035 C 0.0 **** -0.24
302 H 91.50961950212695 96.90302935930512 52.41901209167797 H 0.0 **** 0.06
303 H 89.85785449027821 97.4075390307 52.85088782739584 H 0.0 **** 0.06
304 H 91.0877183425759 97.20294543146716 54.12258425519077 H 0.0 **** 0.06
305 H 90.43172055501498 95.77855935626008 53.28046106357412 H 0.0 **** 0.06
306 C 96.29005269231436 73.81592546770023 1.550847829856309 C 0.0 **** -0.24
307 H 96.96771267002342 73.50006186969998 0.7584971880654052 H 0.0 **** 0.06
308 H 95.94946219132464 72.94196162575028 2.1075684739560643 H 0.0 **** 0.06
309 H 95.43173243354107 74.32554595784859 1.1142877560856164 H 0.0 **** 0.06
310 H 96.81121165391514 74.49535466696122 2.225755827125454 H 0.0 **** 0.06
311 C 95.59000187607197 20.05817308272168 89.59983943851336 C 0.0 **** -0.24
312 H 94.8659698230688 20.873048243135145 89.57308917190386 H 0.0 **** 0.06
313 H 95.72285186426318 19.725415818112253 90.62984090404127 H 0.0 **** 0.06
314 H 96.54365700580765 20.406838831276957 89.20422911619063 H 0.0 **** 0.06
315 H 95.22536493193323 19.228858080863404 88.99366867058328 H 0.0 **** 0.06
316 C 88.11379368132899 4.683230086601796 25.540350860685948 C 0.0 **** -0.24
317 H 88.21520923599209 5.028439018693749 26.568868290468885 H 0.0 **** 0.06
318 H 88.3115027814785 5.509908277439781 24.858359862279883 H 0.0 **** 0.06
319 H 87.10072138086045 4.313244994900625 25.379954283494783 H 0.0 **** 0.06
320 H 88.82648354260256 3.879557296446791 25.354752674647642 H 0.0 **** 0.06
321 C 97.70409660790153 74.34219103656527 84.16166880091181 C 0.0 **** -0.24
322 H 96.65060706677644 74.49127734385024 83.92526761441195 H 0.0 **** 0.06
323 H 97.80833872258472 73.48451045300787 84.82794591797997 H 0.0 **** 0.06
324 H 98.09650333806697 75.23280617363835 84.65102043701602 H 0.0 **** 0.06
325 H 98.25958850419562 74.15732043413794 83.24268673528357 H 0.0 **** 0.06
326 C 113.17925659352771 99.46719475653725 73.11529277654259 C 0.0 **** -0.24
327 H 113.77438911173398 98.91703902633446 72.38698145397913 H 0.0 **** 0.06
328 H 112.78352803618417 100.37203961555764 72.65215105182268 H 0.0 **** 0.06
329 H 113.80482172281224 99.73739068776408 73.96559322652266 H 0.0 **** 0.06
330 H 112.35298062173435 98.84185803564128 73.4561484315344 H 0.0 **** 0.06
331 C 47.07903879988511 101.26604382391616 8.188875317408616 C 0.0 **** -0.24
332 H 47.18928975389335 102.24971516717943 7.732460063558733 H 0.0 **** 0.06
333 H 47.066007222641886 100.50369213781585 7.410360374053596 H 0.0 **** 0.06
334 H 46.14524355509923 101.22968793727063 8.75064235393964 H 0.0 **** 0.06
335 H 47.91631562690682 101.08334877773035 8.863872067439729 H 0.0 **** 0.06
336 C 111.57702396658966 113.97234486878989 121.83807574037911 C 0.0 **** -0.24
337 H 110.76843884366805 114.11768687219785 122.55530327781392 H 0.0 **** 0.06
338 H 112.44612647770978 114.55410532350498 122.14777100555477 H 0.0 **** 0.06
339 H 111.2513043560829 114.30157427301094 120.85182518777428 H 0.0 **** 0.06
340 H 111.84147118562912 112.91611457070962 121.79950585440265 H 0.0 **** 0.06
341 C 61.11375369739383 109.75704642900575 81.66246764818035 C 0.0 **** -0.24
342 H 61.12152228782517 109.9651204411611 82.73281823310157 H 0.0 **** 0.06
343 H 62.13675663673101 109.75827550210812 81.28470713045579 H 0.0 **** 0.06
344 H 60.53519401840478 110.52374096135176 81.14799159123169 H 0.0 **** 0.06
345 H 60.662328631082715 108.78164041958951 81.48536905993922 H 0.0 **** 0.06
346 C 72.54173673363289 90.0216111708687 44.938572420928665 C 0.0 **** -0.24
347 H 73.3947237181107 90.22867512821463 44.29191159701628 H 0.0 **** 0.06
348 H 72.8641546049086 89.40526074863178 45.777903318113715 H 0.0 **** 0.06
349 H 71.77693449347464 89.49237646936729 44.370888893237804 H 0.0 **** 0.06
350 H 72.133607765551 90.96169707924955 45.311732952822354 H 0.0 **** 0.06
351 C 70.1019934343174 125.96851373404834 103.94869551895906 C 0.0 **** -0.24
352 H 70.10350872025185 126.8229585348844 103.2720499351468 H 0.0 **** 0.06
353 H 69.4753941904768 125.17802286179526 103.53337739529721 H 0.0 **** 0.06
354 H 69.70741569780722 126.27379177310465 104.9179953779351 H 0.0 **** 0.06
355 H 71.11988712741982 125.60023645958123 104.06995827217295 H 0.0 **** 0.06
356 C 35.942878709369396 86.50767493792615 102.18294296484817 C 0.0 **** -0.24
357 H 36.294546398932 87.4320379386318 102.64002423691915 H 0.0 **** 0.06
358 H 36.70704698117085 85.73784921633893 102.28808408193339 H 0.0 **** 0.06
359 H 35.74197900952024 86.67845766354203 101.12479311593091 H 0.0 **** 0.06
360 H 35.02818733006219 86.18190399938685 102.67801208472491 H 0.0 **** 0.06
361 C 23.641264834317212 108.99975354431155 105.66011070443614 C 0.0 **** -0.24
362 H 23.798347614067154 108.40730236214397 106.56092922848727 H 0.0 **** 0.06
363 H 22.67604375829319 109.50161069261681 105.71972688329501 H 0.0 **** 0.06
364 H 23.658081372541346 108.34669595720734 104.78788342295094 H 0.0 **** 0.06
365 H 24.433971861173916 109.74357097495488 105.57213490637375 H 0.0 **** 0.06
366 C 16.557766996871322 127.28497478446377 35.141597507534044 C 0.0 **** -0.24
367 H 16.652675466975126 126.21673151056723 35.338861831604845 H 0.0 **** 0.06
368 H 17.446089868860497 127.80105561974761 35.504239828072855 H 0.0 **** 0.06
369 H 15.676521933286466 127.67235912960138 35.654169501215534 H 0.0 **** 0.06
370 H 16.45408053358952 127.44800367928525 34.068895236728224 H 0.0 **** 0.06
371 C 122.06031069168856 128.07705600367157 9.335116305611294 C 0.0 **** -0.24
372 H 122.78492158037403 128.7487328688413 8.874828659748253 H 0.0 **** 0.06
373 H 122.14319114464482 128.14081800634818 10.420256723915013 H 0.0 **** 0.06
374 H 122.25821520668427 127.05415026673256 9.01333660047731 H 0.0 **** 0.06
375 H 121.05389737986448 128.36494605303315 9.029438214120976 H 0.0 **** 0.06
376 C 120.91481869345608 115.1668334920672 65.01534219838118 C 0.0 **** -0.24
377 H 121.3165606895131 114.65353003862926 65.88865163485588 H 0.0 **** 0.06
378 H 120.12840386857033 114.55940407500397 64.56684836114245 H 0.0 **** 0.06
379 H 121.71194442299787 115.32356885662047 64.28885954417007 H 0.0 **** 0.06
380 H 120.5031131127235 116.12965572701842 65.31725494183743 H 0.0 **** 0.06
381 C 126.89848626784337 45.03907310712992 19.84655014192785 C 0.0 **** -0.24
382 H 127.69908217999526 44.795823375879024 19.148894673141797 H 0.0 **** 0.06
383 H 126.9202764352278 44.339034306399356 20.68241041533298 H 0.0 **** 0.06
384 H 125.93734421838647 44.966257135310286 19.336401796520448 H 0.0 **** 0.06
385 H 127.03612518922986 46.05431246174936 20.218555580734574 H 0.0 **** 0.06
386 C 101.3005384360174 36.63386383021184 19.742720850518936 C 0.0 **** -0.24
387 H 100.33807463128 36.747348307156976 20.241041165335332 H 0.0 **** 0.06
388 H 101.76545309334267 37.61141123110254 19.623658732337333 H 0.0 **** 0.06
389 H 101.14966113287429 36.17982295513534 18.762641532577106 H 0.0 **** 0.06
390 H 101.9466893321067 35.99343500072768 20.343606395564052 H 0.0 **** 0.06
391 C 6.068992513438175 87.830304043197 20.824131756239808 C 0.0 **** -0.24
392 H 5.106449862233774 87.43631309030725 21.15301371497685 H 0.0 **** 0.06
393 H 6.4703550555489215 88.49338149059321 21.591245790226424 H 0.0 **** 0.06
394 H 5.9361119918788745 88.38524653479705 19.896333839695615 H 0.0 **** 0.06
395 H 6.761350814556863 87.00440768924835 20.659341908131182 H 0.0 **** 0.06
396 C 66.86008659769277 54.042322615014626 46.994356651425164 C 0.0 **** -0.24
397 H 66.84754410837274 54.52606879776343 46.0173168242502 H 0.0 **** 0.06
398 H 67.00728310217255 54.794403300693574 47.76955746927683 H 0.0 **** 0.06
399 H 67.67374414552512 53.31853218853115 47.0309795333481 H 0.0 **** 0.06
400 H 65.91171719424273 53.53088828338642 47.15877642865263 H 0.0 **** 0.06
401 C 29.737462606520467 51.394513379932704 83.77190144140658 C 0.0 **** -0.24
402 H 30.489834883431797 50.72450186653589 83.35600603401988 H 0.0 **** 0.06
403 H 29.291613876276074 51.98234416930309 82.96957835222312 H 0.0 **** 0.06
404 H 30.205623395782425 52.06126615576608 84.4952835120649 H 0.0 **** 0.06
405 H 28.962665761594963 50.80751247793913 84.2670351284693 H 0.0 **** 0.06
406 C 90.49601189240735 80.16853302377046 100.09930866213085 C 0.0 **** -0.24
407 H 91.48293128463405 79.71384801981705 100.1814858880036 H 0.0 **** 0.06
408 H 90.60339277681197 81.22821312497071 99.86333406130242 H 0.0 **** 0.06
409 H 89.96671859040947 80.05927146113109 101.04526580446475 H 0.0 **** 0.06
410 H 89.9327141036236 79.67455048983174 99.30726298281101 H 0.0 **** 0.06
411 C 26.09880496443023 92.78015269102787 55.29458969273813 C 0.0 **** -0.24
412 H 25.1875706034119 92.83570061190659 55.889742455974414 H 0.0 **** 0.06
413 H 26.814683454455775 93.51754892819883 55.657402638321884 H 0.0 **** 0.06
414 H 25.8629681069051 92.98461328540048 54.249951791556015 H 0.0 **** 0.06
415 H 26.52838757178415 91.78213237539865 55.38109229847353 H 0.0 **** 0.06
416 C 71.56068024101674 46.68368152826929 81.44166804639951 C 0.0 **** -0.24
417 H 70.8810061209989 47.53499137438547 81.45289452866479 H 0.0 **** 0.06
418 H 72.36318191469611 46.850671698719395 82.1592687334375 H 0.0 **** 0.06
419 H 71.98341507659204 46.569917875763565 80.44339675819879 H 0.0 **** 0.06
420 H 71.0149853180771 45.77914874992075 81.71012096506018 H 0.0 **** 0.06
421 C 78.5025416226083 73.68013997068262 79.0610828882214 C 0.0 **** -0.24
422 H 78.96766835557399 72.97496840875719 79.7500826508773 H 0.0 **** 0.06
423 H 78.03155046866554 73.13209781481739 78.2450604642387 H 0.0 **** 0.06
424 H 79.26282115617815 74.34894833698569 78.65864180668746 H 0.0 **** 0.06
425 H 77.74837716004204 74.26244710439433 79.59127802459889 H 0.0 **** 0.06
426 C 2.4606445394915966 55.91366429922593 110.96008321811081 C 0.0 **** -0.24
427 H 3.3737923040595064 56.322212012253345 110.52716590553058 H 0.0 **** 0.06
428 H 2.4874078338220045 56.033539301540884 112.0437188808146 H 0.0 **** 0.06
429 H 2.3847288967608335 54.85499263339025 110.71374292477631 H 0.0 **** 0.06
430 H 1.5992478953871512 56.44440202363316 110.55670911919816 H 0.0 **** 0.06
431 C 94.7233947435029 37.059532824315 10.408429905391358 C 0.0 **** -0.24
432 H 94.8650985127623 37.070823392819165 11.488698845680602 H 0.0 **** 0.06
433 H 94.99129314300778 36.077201100679815 10.017902868556888 H 0.0 **** 0.06
434 H 95.35870985516839 37.81810235250697 9.950559309278873 H 0.0 **** 0.06
435 H 93.67964493313582 37.2698622787311 10.176778703092538 H 0.0 **** 0.06
436 C 44.58461411316384 56.18086361278003 15.57385657465997 C 0.0 **** -0.24
437 H 44.15558867905894 55.182585121728394 15.489537655411937 H 0.0 **** 0.06
438 H 44.45581733949073 56.713248225097715 14.63083189137393 H 0.0 **** 0.06
439 H 45.64760066704892 56.10027575817817 15.803401147316407 H 0.0 **** 0.06
440 H 44.0809420408658 56.726091183501936 16.37210328613625 H 0.0 **** 0.06
441 C 6.142017970127881 82.21967035333049 93.87709674247859 C 0.0 **** -0.24
442 H 6.764465844048402 81.65784170468018 93.18143617595382 H 0.0 **** 0.06
443 H 5.099736464645076 82.1609104820736 93.56035059170318 H 0.0 **** 0.06
444 H 6.460353402442394 83.26208134271928 93.88902784780873 H 0.0 **** 0.06
445 H 6.2418652621559545 81.79837148997359 94.87754977513083 H 0.0 **** 0.06
446 C 75.77539864944362 29.95269147661844 31.764735246496713 C 0.0 **** -0.24
447 H 75.30741968950785 29.31238335702558 32.51215858627387 H 0.0 **** 0.06
448 H 75.82985910376097 30.973744259327944 32.14341029008787 H 0.0 **** 0.06
449 H 75.18353262703108 29.934970224133608 30.849217864398554 H 0.0 **** 0.06
450 H 76.78167873450045 29.589224781303216 31.554193389218227 H 0.0 **** 0.06
451 C 108.24560923844533 46.59833978158805 1.4342347357910796 C 0.0 **** -0.24
452 H 109.0462632179078 47.22522294426431 1.0406255095124948 H 0.0 **** 0.06
453 H 107.30782571961646 47.154378661849826 1.4189263391652105 H 0.0 **** 0.06
454 H 108.48082783845601 46.30840024816583 2.457624529291735 H 0.0 **** 0.06
455 H 108.1488613698597 45.705408440755356 0.8164160277354995 H 0.0 **** 0.06
456 C 59.60899996084085 12.30802204105629 1.8304211897168159 C 0.0 **** -0.24
457 H 59.09960158536566 11.346397929600471 1.8947628301090162 H 0.0 **** 0.06
458 H 59.60790110265961 12.65087152494118 0.7952818043389129 H 0.0 **** 0.06
459 H 60.636806425263885 12.198789865372078 2.175539481324762 H 0.0 **** 0.06
460 H 59.09065093599217 13.03536546844208 2.455408636864803 H 0.0 **** 0.06
461 C 34.975717328594754 125.29157375527375 37.45471929192806 C 0.0 **** -0.24
462 H 35.4502398131342 125.1921475917103 38.43018186649769 H 0.0 **** 0.06
463 H 33.89243463506415 125.29729534293772 37.57683955349728 H 0.0 **** 0.06
464 H 35.265539501937894 124.45198558028937 36.82255531146211 H 0.0 **** 0.06
465 H 35.29434423941862 126.22395485749175 36.98903182128254 H 0.0 **** 0.06
466 C 17.428945804657616 18.710778823468473 113.22213980255935 C 0.0 **** -0.24
467 H 17.044462892811794 18.25757175079565 114.13622937559404 H 0.0 **** 0.06
468 H 16.604228042247797 18.897997245395487 112.5344092237421 H 0.0 **** 0.06
469 H 18.144822359177482 18.033832089388596 112.7555314362254 H 0.0 **** 0.06
470 H 17.923264311185875 19.65173595186019 113.46343704493637 H 0.0 **** 0.06
471 C 103.42647209924144 40.85108975023896 93.82718501656964 C 0.0 **** -0.24
472 H 102.87857576832948 39.95938210418966 93.52222507309402 H 0.0 **** 0.06
473 H 102.89887501476466 41.33819181791641 94.64742057978671 H 0.0 **** 0.06
474 H 103.50175747723443 41.537056954712945 92.98438700531395 H 0.0 **** 0.06
475 H 104.42644912075323 40.56757585763866 94.15585401886247 H 0.0 **** 0.06
476 C 10.364422063229938 73.31080916038448 45.05555352627755 C 0.0 **** -0.24
477 H 10.312333099896023 73.41697862437326 43.972105677956705 H 0.0 **** 0.06
478 H 10.115145037611029 72.28596371772619 45.33268403150896 H 0.0 **** 0.06
479 H 9.655815148037505 73.99599977952201 45.52222857080068 H 0.0 **** 0.06
480 H 11.373450153074629 73.54406035661336 45.395425061477795 H 0.0 **** 0.06
481 C 64.54736429839686 13.578821805617135 15.424605269385665 C 0.0 **** -0.24
482 H 65.55278678015895 13.348775815939266 15.071050486812936 H 0.0 **** 0.06
483 H 64.553955914879 13.651834828872332 16.512572719059605 H 0.0 **** 0.06
484 H 63.86404141827114 12.787666929502475 15.116604860660544 H 0.0 **** 0.06
485 H 64.22186902435327 14.527438344801457 14.998969397574257 H 0.0 **** 0.06
486 C 33.77566395539543 109.55985161619475 22.97049791793401 C 0.0 **** -0.24
487 H 34.12392634038406 110.15831625045608 23.81233214390383 H 0.0 **** 0.06
488 H 34.328666431188054 108.6217309391934 22.938792101080793 H 0.0 **** 0.06
489 H 33.93649219668049 110.10939777331824 22.0437602583399 H 0.0 **** 0.06
490 H 32.711967364616584 109.35223318662261 23.088915174912955 H 0.0 **** 0.06
491 C 106.44618854889836 27.12554055420089 27.885880620992396 C 0.0 **** -0.24
492 H 106.58288256507615 28.011695033893105 28.505312964739772 H 0.0 **** 0.06
493 H 106.28700828418505 26.256412916938082 28.52591373702907 H 0.0 **** 0.06
494 H 107.33542527909225 26.96868842210189 27.274375116473493 H 0.0 **** 0.06
495 H 105.58002711678165 27.26377750473941 27.239689997561044 H 0.0 **** 0.06
496 C 16.862900860086427 77.36089125794172 11.884055873985687 C 0.0 **** -0.24
497 H 17.03386619764163 78.43718582234904 11.91177501353556 H 0.0 **** 0.06
498 H 17.82100913694275 76.8416892011456 11.869730936734626 H 0.0 **** 0.06
499 H 16.297556888003783 77.10584701166025 10.988061420993915 H 0.0 **** 0.06
500 H 16.298864009818473 77.05957486119259 12.767264444879444 H 0.0 **** 0.06
501 C 117.45586182512191 114.60194541263388 13.129830256435866 C 0.0 **** -0.24
502 H 117.8939144241216 115.09701151553224 13.99618001986326 H 0.0 **** 0.06
503 H 117.87942709884399 113.60272314562718 13.029996525499342 H 0.0 **** 0.06
504 H 117.6732882142272 115.18098807156423 12.231868743506368 H 0.0 **** 0.06
505 H 116.37617680763096 114.5278260710063 13.261306786910353 H 0.0 **** 0.06
506 C 2.2649798786115696 48.754703498496355 67.59603223360517 C 0.0 **** -0.24
507 H 2.100755840198616 47.9537069682772 68.31687652875883 H 0.0 **** 0.06
508 H 2.2280228832239573 48.34702993631481 66.58560809482572 H 0.0 **** 0.06
509 H 3.2416848868016928 49.20553949249424 67.77045320890267 H 0.0 **** 0.06
510 H 1.4890664999106207 49.51167265696526 67.71150780233205 H 0.0 **** 0.06
511 C 104.85241592487503 107.89870305501387 62.8847972795333 C 0.0 **** -0.24
512 H 103.9342890410188 107.31122598294127 62.91231501996218 H 0.0 **** 0.06
513 H 104.67689217701732 108.87043457650054 63.347397309624455 H 0.0 **** 0.06
514 H 105.16176800255846 108.03934921546283 61.84963769785686 H 0.0 **** 0.06
515 H 105.63578388140262 107.37277629827787 63.43012391130249 H 0.0 **** 0.06
516 C 114.34315008992309 86.56927465476899 61.48365117005483 C 0.0 **** -0.24
517 H 114.53618971451107 85.58291447873292 61.905266832117235 H 0.0 **** 0.06
518 H 113.36808860225494 86.92297790441897 61.82136210657359 H 0.0 **** 0.06
519 H 114.35047798406845 86.50712760162699 60.39538487770329 H 0.0 **** 0.06
520 H 115.11538153101247 87.2637365095615 61.81426997395204 H 0.0 **** 0.06
521 C 91.03800907246205 24.13816585056945 130.16923563755847 C 0.0 **** -0.24
522 H 91.86591352334318 24.409913514504638 130.82432182596455 H 0.0 **** 0.06
523 H 90.8565406555687 23.06598586896729 130.23923371679348 H 0.0 **** 0.06
524 H 91.28939196894626 24.397926111173675 129.14008802339123 H 0.0 **** 0.06
525 H 90.142722422193 24.680074191739436 130.4722695851715 H 0.0 **** 0.06
526 C 105.04331066759127 112.30195875725967 95.04556216600844 C 0.0 **** -0.24
527 H 104.42842133709885 112.05234134625907 94.18108908537147 H 0.0 **** 0.06
528 H 104.6834618755663 113.22956296223073 95.49091569457579 H 0.0 **** 0.06
529 H 106.0790520134471 112.42840145320065 94.73032799941919 H 0.0 **** 0.06
530 H 104.98287014322028 111.49881844452116 95.77976924228602 H 0.0 **** 0.06
531 C 28.399400808555015 130.57178806580245 66.2526876928533 C 0.0 **** -0.24
532 H 27.405145280046952 130.14559594395564 66.12114433669106 H 0.0 **** 0.06
533 H 28.6612077324383 131.16006588613763 65.37279346573047 H 0.0 **** 0.06
534 H 29.124830677747184 129.7690999217743 66.38346495841236 H 0.0 **** 0.06
535 H 28.40491397760121 131.21394997876536 67.1338972017652 H 0.0 **** 0.06
536 C 51.78800275068562 95.63480321730171 105.01073667484826 C 0.0 **** -0.24
537 H 52.47229950445006 94.85667700111921 105.34923634478662 H 0.0 **** 0.06
538 H 52.330478724274826 96.351474812368 104.39282551405529 H 0.0 **** 0.06
539 H 51.36553481405349 96.14774813327244 105.87522257496832 H 0.0 **** 0.06
540 H 50.9860208764249 95.18418788479843 104.42734719986706 H 0.0 **** 0.06
541 C 82.6321224096733 44.87221033596539 31.10487382624494 C 0.0 **** -0.24
542 H 83.08812871064268 44.577042969581896 32.04956526563694 H 0.0 **** 0.06
543 H 81.87256147934445 44.14225923486796 30.823622878951255 H 0.0 **** 0.06
544 H 83.39879425412862 44.915885553060505 30.330947305880755 H 0.0 **** 0.06
545 H 82.17145444627852 45.85369205089444 31.215355134313185 H 0.0 **** 0.06
546 C 129.3523104724687 68.54873942142073 25.103728370729584 C 0.0 **** -0.24
547 H 128.4814089710843 68.07961457354308 25.560538914020583 H 0.0 **** 0.06
548 H 129.11855208195573 69.58460333829949 24.85652710188475 H 0.0 **** 0.06
549 H 129.620371895351 68.00902837089038 24.195255726358766 H 0.0 **** 0.06
550 H 130.18814248535392 68.52125794008853 25.8030466828302 H 0.0 **** 0.06
551 C 34.189716510889745 43.98582739612962 90.19737102696652 C 0.0 **** -0.24
552 H 35.03633842102588 43.865991267281686 90.87287089780088 H 0.0 **** 0.06
553 H 34.51497590776638 43.8064817517068 89.17240421905129 H 0.0 **** 0.06
554 H 33.79818271858596 44.99970296520189 90.2820888368382 H 0.0 **** 0.06
555 H 33.410051950519446 43.271370260049224 90.46142905252131 H 0.0 **** 0.06
556 C 2.4758418616164874 23.151738517215023 21.90901214375181 C 0.0 **** -0.24
557 H 1.4329241789046137 23.030732729511158 21.617634850996986 H 0.0 **** 0.06
558 H 3.008335887760836 23.702794737954378 21.134723084724122 H 0.0 **** 0.06
559 H 2.9325518519530647 22.169687458104818 22.037282357415748 H 0.0 **** 0.06
560 H 2.528329491465115 23.702663858356715 22.848926436084035 H 0.0 **** 0.06
561 C 109.47459339576602 24.658701410428527 67.26829694303262 C 0.0 **** -0.24
562 H 108.76470859957766 25.13629907928997 67.94374977040208 H 0.0 **** 0.06
563 H 109.31544801353323 25.026084620399615 66.25428618514887 H 0.0 **** 0.06
564 H 109.32751169480196 23.57942480564396 67.2908444579018 H 0.0 **** 0.06
565 H 110.49130308911231 24.89360485999061 67.58483018410797 H 0.0 **** 0.06
566 C 4.777471541257256 107.2269951886969 64.85444457625336 C 0.0 **** -0.24
567 H 5.5043536831914395 106.78435194705051 64.17452936346726 H 0.0 **** 0.06
568 H 5.212987758877574 108.10712777799101 65.32948965189905 H 0.0 **** 0.06
569 H 4.505326364767171 106.49917747299307 65.61841958119578 H 0.0 **** 0.06
570 H 3.887134950893582 107.51858498097437 64.29597371480338 H 0.0 **** 0.06
571 C 124.76978059231777 47.26264412946455 61.10177050002669 C 0.0 **** -0.24
572 H 124.11604263008594 48.13431495517028 61.08512471732233 H 0.0 **** 0.06
573 H 124.98680413416189 46.952458039318856 60.07949467816488 H 0.0 **** 0.06
574 H 124.27755506719885 46.44827433459733 61.63321600897902 H 0.0 **** 0.06
575 H 125.70072961042088 47.516477495206914 61.60950080412502 H 0.0 **** 0.06
576 C 22.64029012747003 42.08004990858322 3.8924264287571333 C 0.0 **** -0.24
577 H 21.593893837819635 42.045439656977265 3.5914657538857853 H 0.0 **** 0.06
578 H 23.091733882997396 41.09682287180479 3.7545508319850285 H 0.0 **** 0.06
579 H 22.70705312505428 42.36659442596482 4.942587599317747 H 0.0 **** 0.06
580 H 23.16921078566785 42.811812829629304 3.282217115764297 H 0.0 **** 0.06
581 C 5.780220651907314 11.16363625261187 74.55935083616333 C 0.0 **** -0.24
582 H 6.138230157478603 12.184187177556197 74.69833473459903 H 0.0 **** 0.06
583 H 6.617803038301588 10.471259136894275 74.64194699649101 H 0.0 **** 0.06
584 H 5.325623567820941 11.069800465631534 73.57336717539766 H 0.0 **** 0.06
585 H 5.039579111120133 10.931719058645939 75.3238774361077 H 0.0 **** 0.06
586 C 64.34266810338667 45.82415302086474 13.801067515869157 C 0.0 **** -0.24
587 H 64.47307301042721 44.79273406222762 14.129909438424985 H 0.0 **** 0.06
588 H 63.390907304533684 45.92263659144919 13.281033171632291 H 0.0 **** 0.06
589 H 65.15618328479425 46.09560992777915 13.127699330754357 H 0.0 **** 0.06
590 H 64.35413823540783 46.4844759022825 14.668176271591097 H 0.0 **** 0.06
591 C 122.18117758055764 97.25548123277352 112.42217002154662 C 0.0 **** -0.24
592 H 121.48281916525929 98.07378123637312 112.60102237674364 H 0.0 **** 0.06
593 H 122.19429827923925 96.59359005214037 113.28744992955164 H 0.0 **** 0.06
594 H 123.17965173003846 97.65955938612206 112.25698631892182 H 0.0 **** 0.06
595 H 121.8658076796374 96.69529433331792 111.54113369386695 H 0.0 **** 0.06
596 C 38.962997902392885 88.09393495634227 100.54970149388177 C 0.0 **** -0.24
597 H 38.780232322053706 88.26374264385558 101.61093548377573 H 0.0 **** 0.06
598 H 39.348990925998294 87.08439926953534 100.40519334655727 H 0.0 **** 0.06
599 H 39.69307257033921 88.8178322360676 100.18688996023371 H 0.0 **** 0.06
600 H 38.03092890110338 88.21018089712729 99.99760578634749 H 0.0 **** 0.06
601 C 74.86939728051516 74.57745668919515 117.54788533533642 C 0.0 **** -0.24
602 H 74.34110181781983 75.2367002302702 116.85843672984821 H 0.0 **** 0.06
603 H 75.94011170656307 74.77224931835477 117.4878610729155 H 0.0 **** 0.06
604 H 74.6732677164922 73.53954548593106 117.27900991191886 H 0.0 **** 0.06
605 H 74.52220334110348 74.76180418403675 118.56424393653103 H 0.0 **** 0.06
606 C 95.88386399054933 27.797083953025258 77.08789754878849 C 0.0 **** -0.24
607 H 95.19798171035691 27.972519517279082 76.25859882245601 H 0.0 **** 0.06
608 H 95.445236810297 28.17915455973906 78.00895109775017 H 0.0 **** 0.06
609 H 96.82575033362147 28.309753634884025 76.89318655285213 H 0.0 **** 0.06
610 H 96.06642677590811 26.726867550549322 77.18753780122614 H 0.0 **** 0.06
611 C 130.52473970682925 61.160001902206815 80.4486128665215 C 0.0 **** -0.24
612 H 129.79116541668972 60.35512119186278 80.47868284443169 H 0.0 **** 0.06
613 H 131.20910832922007 60.99773621794537 79.61613891273988 H 0.0 **** 0.06
614 H 131.0872277257344 61.17373463948198 81.38346004411295 H 0.0 **** 0.06
615 H 130.0131964863816 62.11306792715695 80.31989196613848 H 0.0 **** 0.06
616 C 95.40395912509715 113.81287780626269 3.458050307085557 C 0.0 **** -0.24
617 H 94.69093167542113 113.97135850354158 4.2663584947308095 H 0.0 **** 0.06
618 H 96.4027867884615 114.09124694405602 3.7953861021225066 H 0.0 **** 0.06
619 H 95.12497783307765 114.4284417383654 2.601948069606806 H 0.0 **** 0.06
620 H 95.39633317520199 112.76231486325656 3.167547606584037 H 0.0 **** 0.06
621 C 46.122613435687924 129.12880317771587 100.80236850262551 C 0.0 **** -0.24
622 H 46.01462336566806 128.38654741942224 100.01258757971789 H 0.0 **** 0.06
623 H 45.683853614923805 128.74483654699986 101.72401050819963 H 0.0 **** 0.06
624 H 45.61046193596704 130.04580734352822 100.51060372891823 H 0.0 **** 0.06
625 H 47.18024618129556 129.33893038014264 100.96302350234635 H 0.0 **** 0.06
626 C 112.75207656001315 99.67257257786167 128.13845456726497 C 0.0 **** -0.24
627 H 112.74369254566342 98.58299427094454 128.12279387939807 H 0.0 **** 0.06
628 H 112.93273749696344 100.04853360189833 127.13086662253974 H 0.0 **** 0.06
629 H 113.54377890695842 100.02022560624584 128.80294030567924 H 0.0 **** 0.06
630 H 111.79040639362896 100.03814850228795 128.49649803247448 H 0.0 **** 0.06
631 C 19.311996198104396 25.956894527558887 5.926806223540154 C 0.0 **** -0.24
632 H 19.916503189603304 26.533340770190136 6.627387782211429 H 0.0 **** 0.06
633 H 18.485353983280817 25.487943564469333 6.4629193236986 H 0.0 **** 0.06
634 H 19.928128132323167 25.186054713284292 5.464109909837248 H 0.0 **** 0.06
635 H 18.917945703130755 26.61905430117021 5.156756852899548 H 0.0 **** 0.06
636 C 12.69214812045626 108.61225332842471 31.22075560340693 C 0.0 **** -0.24
637 H 12.686767224297792 108.57355128893677 30.131873783960458 H 0.0 **** 0.06
638 H 12.564305548966825 109.64424901086085 31.547846831822795 H 0.0 **** 0.06
639 H 13.640953174085201 108.22685711406481 31.593360178593286 H 0.0 **** 0.06
640 H 11.874614485036279 108.00345184580853 31.60933131682725 H 0.0 **** 0.06
641 C 30.61680495614985 36.636214661157396 30.559453953601256 C 0.0 **** -0.24
642 H 31.21394454693052 37.30504075278205 31.18001538341867 H 0.0 **** 0.06
643 H 29.55941932186869 36.86208523129024 30.69566536826909 H 0.0 **** 0.06
644 H 30.80955730646656 35.60350612963359 30.84948683247037 H 0.0 **** 0.06
645 H 30.887148099287742 36.775033172354185 29.51216815931214 H 0.0 **** 0.06
646 C 109.3981618324074 99.57141227049785 111.25459428877025 C 0.0 **** -0.24
647 H 109.19525395378093 99.14323707698357 112.23637373576963 H 0.0 **** 0.06
648 H 110.30705795093945 99.12998313776218 110.8458650005499 H 0.0 **** 0.06
649 H 109.52739807930143 100.64970972503743 111.34800234233421 H 0.0 **** 0.06
650 H 108.56117752991409 99.36329424146777 110.58737941708335 H 0.0 **** 0.06
651 C 66.96956620763747 32.03317184163861 75.69525407196699 C 0.0 **** -0.24
652 H 66.34005807677947 32.90286321142256 75.50667011179881 H 0.0 **** 0.06
653 H 67.40497837519332 31.690872497932297 74.75628661212737 H 0.0 **** 0.06
654 H 66.36805206849456 31.235767493935683 76.12972665255576 H 0.0 **** 0.06
655 H 67.76658183302804 32.30651127080863 76.38735534096759 H 0.0 **** 0.06
656 C 17.71826986251807 91.82484009900274 120.29960531199248 C 0.0 **** -0.24
657 H 18.59347059750761 92.32353328563583 120.71671594420104 H 0.0 **** 0.06
658 H 16.816349950200298 92.35615588299952 120.60609767422295 H 0.0 **** 0.06
659 H 17.677046812450513 90.79845576956336 120.66412051651162 H 0.0 **** 0.06
660 H 17.786212089913967 91.82121545781229 119.21148711303442 H 0.0 **** 0.06
661 C 126.79143720841014 83.06496468658565 115.88546511130511 C 0.0 **** -0.24
662 H 127.46588057268613 82.20975410106007 115.93562994055418 H 0.0 **** 0.06
663 H 125.84671445636653 82.81128618637996 116.36903698293492 H 0.0 **** 0.06
664 H 126.60823359223313 83.32221035976526 114.84225489085645 H 0.0 **** 0.06
665 H 127.24411418730406 83.91450797169244 116.3959082308067 H 0.0 **** 0.06
666 C 16.62769390161057 56.49090054240634 48.55848503821832 C 0.0 **** -0.24
667 H 17.35885031331091 55.68243939545013 48.53080122657056 H 0.0 **** 0.06
668 H 15.760344498460881 56.176351263610854 49.139580795225356 H 0.0 **** 0.06
669 H 16.316287293672644 56.73313408208918 47.54239581691277 H 0.0 **** 0.06
670 H 17.075669035956167 57.37031685849841 49.021251391279094 H 0.0 **** 0.06
671 C 116.66085909316433 63.58757113810947 88.97050258063943 C 0.0 **** -0.24
672 H 117.72102225615913 63.40313431880281 89.14386230016149 H 0.0 **** 0.06
673 H 116.36632716233254 64.51096610481892 89.46849465659949 H 0.0 **** 0.06
674 H 116.07738977206418 62.757465171277886 89.36965185805298 H 0.0 **** 0.06
675 H 116.4781689493588 63.677919278671936 87.89971595594534 H 0.0 **** 0.06
676 C 51.7647966644318 42.89334305883542 70.94491379141927 C 0.0 **** -0.24
677 H 52.120867766985384 42.484576390400875 71.89070904796613 H 0.0 **** 0.06
678 H 52.613150797172295 43.24373202832693 70.35759508150595 H 0.0 **** 0.06
679 H 51.088544564830215 43.726163643025785 71.14030697702765 H 0.0 **** 0.06
680 H 51.23466144579419 42.11796700300648 70.39157292865848 H 0.0 **** 0.06
681 C 15.067479603091328 27.628807972135682 3.476410965792695 C 0.0 **** -0.24
682 H 15.843734505165642 28.004620523843712 4.143246585386777 H 0.0 **** 0.06
683 H 14.176894459123787 28.251367789183263 3.5692436887805457 H 0.0 **** 0.06
684 H 14.822463935650731 26.601555412785835 3.74684023383233 H 0.0 **** 0.06
685 H 15.426199372117168 27.658403299360167 2.4473605608880007 H 0.0 **** 0.06
686 C 33.69827779519491 32.33730993130692 83.95097466626336 C 0.0 **** -0.24
687 H 32.640392714107776 32.117557962824236 84.0965759220646 H 0.0 **** 0.06
688 H 34.29366356969213 31.477826742666053 84.26109878444373 H 0.0 **** 0.06
689 H 33.975567733539776 33.20540062400656 84.54865709550236 H 0.0 **** 0.06
690 H 33.8838923442959 32.546268282432834 82.89732808098975 H 0.0 **** 0.06
691 C 97.47550344948664 91.35310825851798 76.48129970517805 C 0.0 **** -0.24
692 H 97.26941094016883 92.05990031557081 75.67727274236096 H 0.0 **** 0.06
693 H 98.2732722105265 90.67693727051414 76.17506085949125 H 0.0 **** 0.06
694 H 96.5747496718364 90.77858112873787 76.7001438223194 H 0.0 **** 0.06
695 H 97.78352325684617 91.89847726824019 77.37404097655893 H 0.0 **** 0.06
696 C 110.33358592816506 59.74736430869319 41.5442684667754 C 0.0 **** -0.24
697 H 109.49433917664817 60.37196686068445 41.23887529258745 H 0.0 **** 0.06
698 H 110.88953035200473 59.430921425032764 40.66124116486988 H 0.0 **** 0.06
699 H 109.96010924211413 58.87117091415256 42.07321147619719 H 0.0 **** 0.06
700 H 110.98975124198148 60.31763327997831 42.20159474508662 H 0.0 **** 0.06
701 C 50.83779916530956 16.702778678108928 130.44554137028422 C 0.0 **** -0.24
702 H 51.069818598314384 15.860943528587711 131.09679166926918 H 0.0 **** 0.06
703 H 49.90719702635913 16.505307482949775 129.91277754111013 H 0.0 **** 0.06
704 H 51.64545885759652 16.839004776875242 129.72636632892528 H 0.0 **** 0.06
705 H 50.728825590287826 17.606713183266095 131.0451075964566 H 0.0 **** 0.06
706 C 92.09520008652771 10.139371368661735 60.42895306954895 C 0.0 **** -0.24
707 H 93.07747311090645 9.721835999740932 60.204960967545134 H 0.0 **** 0.06
708 H 91.32276918473724 9.43771204101484 60.11425296715896 H 0.0 **** 0.06
709 H 91.97169748220375 11.081259695140915 59.89325163364197 H 0.0 **** 0.06
710 H 92.01143821893766 10.316379667710073 61.5008431927244 H 0.0 **** 0.06
711 C 116.44212689964189 71.8882094747595 70.24144410422113 C 0.0 **** -0.24
712 H 115.47793642111554 71.5563638883617 69.85575676710991 H 0.0 **** 0.06
713 H 116.29163442525271 72.43315859653826 71.17389517226997 H 0.0 **** 0.06
714 H 116.91895842593539 72.54258871655041 69.5110722642481 H 0.0 **** 0.06
715 H 117.07817661840278 71.02327992293047 70.42456698277132 H 0.0 **** 0.06
716 C 42.78150377971757 101.01648081692927 27.385635475613526 C 0.0 **** -0.24
717 H 43.610517897163724 100.91304842478898 28.08547601650281 H 0.0 **** 0.06
718 H 42.942991427724316 101.89403033021202 26.7580558642247 H 0.0 **** 0.06
719 H 41.850553756399705 101.13320797941003 27.939667284510534 H 0.0 **** 0.06
720 H 42.722493923984516 100.12708232867509 26.75807141559136 H 0.0 **** 0.06
721 C 118.13286657351102 15.91858763347986 12.084164370747132 C 0.0 **** -0.24
722 H 117.96922172824227 14.977466877072743 12.60977029948684 H 0.0 **** 0.06
723 H 117.56774085693888 16.711780547849145 12.574848037984125 H 0.0 **** 0.06
724 H 117.79930006283166 15.819657770131215 11.05018910519513 H 0.0 **** 0.06
725 H 119.19489887907253 16.163635888218096 12.100572039853162 H 0.0 **** 0.06
726 C 77.95060154779122 9.650320523467997 121.79564071524516 C 0.0 **** -0.24
727 H 78.01889236350144 10.69612509077507 122.09619133436578 H 0.0 **** 0.06
728 H 76.95372939548105 9.450847686133613 121.40071787800511 H 0.0 **** 0.06
729 H 78.13402606420829 9.01130278257574 122.65964260459111 H 0.0 **** 0.06
730 H 78.6943188341159 9.443960916007143 121.02614168031965 H 0.0 **** 0.06
731 C 85.16625158410113 91.77953481607074 90.5096532516147 C 0.0 **** -0.24
732 H 84.84349853609575 90.7430322293961 90.61075400579332 H 0.0 **** 0.06
733 H 84.4472002273688 92.43317624518923 91.00359505690417 H 0.0 **** 0.06
734 H 85.22740604892658 92.03887403675499 89.45248448662375 H 0.0 **** 0.06
735 H 86.14595090219265 91.90110251369039 90.97125262998946 H 0.0 **** 0.06
736 C 50.650368002920544 116.89174299486515 1.0016106829984999 C 0.0 **** -0.24
737 H 50.41983781791325 116.83330283321963 2.0654654966878354 H 0.0 **** 0.06
738 H 51.58767364157532 117.43285582800428 0.8630803710328685 H 0.0 **** 0.06
739 H 49.847278653800885 117.41614421244407 0.484094198700582 H 0.0 **** 0.06
740 H 50.74883284062753 115.88524314399776 0.5958137426929788 H 0.0 **** 0.06
741 C 20.01837146731779 119.91435288159099 117.8259271838995 C 0.0 **** -0.24
742 H 19.640368063398356 120.85658906792933 118.22374864293317 H 0.0 **** 0.06
743 H 19.51314531516438 119.08367700085611 118.31884562942733 H 0.0 **** 0.06
744 H 21.09163738978708 119.84790104927646 118.00789409691392 H 0.0 **** 0.06
745 H 19.82923245294012 119.87127275578894 116.75350469988325 H 0.0 **** 0.06
746 C 82.81924539121312 16.626105433578772 71.13859226612304 C 0.0 **** -0.24
747 H 83.6597406734345 17.163314122574263 71.57936322924652 H 0.0 **** 0.06
748 H 81.99677832823417 17.319975942793178 70.96377196696716 H 0.0 **** 0.06
749 H 82.49401058891104 15.839229454252063 71.81865693149409 H 0.0 **** 0.06
750 H 83.1282699113741 16.183820395435163 70.19156890159661 H 0.0 **** 0.06
751 C 82.18392547382439 115.56152512722366 122.91884155867174 C 0.0 **** -0.24
752 H 83.17245125546292 115.88306899096554 122.58983877399608 H 0.0 **** 0.06
753 H 82.27689146338963 114.65365627686762 123.51585413104154 H 0.0 **** 0.06
754 H 81.55800184825439 115.36255852073046 122.04869708938209 H 0.0 **** 0.06
755 H 81.72823397661395 116.34837930947447 123.52171330702471 H 0.0 **** 0.06
756 C 45.042455136390004 110.70868600743441 94.3319284559133 C 0.0 **** -0.24
757 H 44.20125409316685 111.12528901943352 93.77883700946404 H 0.0 **** 0.06
758 H 44.77004685145101 109.72718921977449 94.7214747536953 H 0.0 **** 0.06
759 H 45.296058953461284 111.37069390835246 95.15998468636849 H 0.0 **** 0.06
760 H 45.90054457981779 110.61102527779484 93.66759096028903 H 0.0 **** 0.06
761 C 99.76564349280531 90.75467088098418 33.66345177946664 C 0.0 **** -0.24
762 H 99.30759804421291 90.5668775327971 34.63495501628017 H 0.0 **** 0.06
763 H 100.0998957875645 89.8108800372832 33.23236625718238 H 0.0 **** 0.06
764 H 100.61901206169476 91.42068632121862 33.7874232973013 H 0.0 **** 0.06
765 H 99.03461364118083 91.21873387476086 33.00163507949844 H 0.0 **** 0.06
766 C 75.59043948455692 15.03058537390261 25.581278627302908 C 0.0 **** -0.24
767 H 76.36098546379905 15.105069313333072 26.34830110342466 H 0.0 **** 0.06
768 H 74.77680268816667 14.400086150579696 25.942475898365487 H 0.0 **** 0.06
769 H 76.01617186858456 14.592608211703702 24.67905174046554 H 0.0 **** 0.06
770 H 75.20586468292532 16.025698212163803 25.35519856303104 H 0.0 **** 0.06
771 C 116.17262951646006 34.6171574074951 7.759738012706862 C 0.0 **** -0.24
772 H 115.73367800285584 33.62796167718386 7.624058504229424 H 0.0 **** 0.06
773 H 115.79258696882013 35.291013934397455 6.991481839264253 H 0.0 **** 0.06
774 H 117.25691115321595 34.54690324521735 7.678688013089669 H 0.0 **** 0.06
775 H 115.90653746889889 35.000674483682104 8.744928941365686 H 0.0 **** 0.06
776 C 30.861215541424713 15.925792280393182 0.17410331410687263 C 0.0 **** -0.24
777 H 30.754420294319004 16.40420789293421 -0.798643136991501 H 0.0 **** 0.06
778 H 31.803333012659266 16.23178920857751 0.6283719468853235 H 0.0 **** 0.06
779 H 30.85302504613105 14.842654293767595 0.04802180849475235 H 0.0 **** 0.06
780 H 30.033400051012222 16.22221732426766 0.8181717650213614 H 0.0 **** 0.06
781 C 120.42258596405225 89.34809344614169 41.20254892057928 C 0.0 **** -0.24
782 H 119.46229373851088 89.69052489296243 40.817586600017364 H 0.0 **** 0.06
783 H 120.28899378893868 88.39892348793722 41.72194281286836 H 0.0 **** 0.06
784 H 120.82045690807912 90.08912664081132 41.89617995455385 H 0.0 **** 0.06
785 H 121.11874019185723 89.21477084403048 40.37429843828358 H 0.0 **** 0.06
786 C 7.611625218206882 49.306253064779014 68.22778868487282 C 0.0 **** -0.24
787 H 8.37904605174839 49.82816424572117 68.79916634990397 H 0.0 **** 0.06
788 H 7.744164577032905 49.51584774708171 67.16579860711616 H 0.0 **** 0.06
789 H 6.62711175608348 49.64716670844858 68.54603941259609 H 0.0 **** 0.06
790 H 7.698160925686352 48.23280124398227 68.40008292755269 H 0.0 **** 0.06
791 C 82.82174064910406 65.32015233642117 58.0627008510188 C 0.0 **** -0.24
792 H 82.79230461628569 64.60856400666121 57.237908146588055 H 0.0 **** 0.06
793 H 82.2372183131582 64.93383296229145 58.89720573723801 H 0.0 **** 0.06
794 H 82.40445544364961 66.27289429142647 57.73637079238392 H 0.0 **** 0.06
795 H 83.85502274025444 65.46603855360037 58.37874806693169 H 0.0 **** 0.06
796 C 9.711688197096606 120.22616682426957 17.57055510085614 C 0.0 **** -0.24
797 H 9.587317674524826 121.28236143852732 17.329811610281034 H 0.0 **** 0.06
798 H 8.798336626271919 119.8502982964111 18.032577043024183 H 0.0 **** 0.06
799 H 10.544707203274925 120.10847710256918 18.263719542075307 H 0.0 **** 0.06
800 H 9.915886382097568 119.66601198514844 16.658254104399923 H 0.0 **** 0.06
801 C 1.4523376222809645 41.05290924044928 8.180411162758276 C 0.0 **** -0.24
802 H 1.6728256386020064 41.68310432596731 9.042257252816341 H 0.0 **** 0.06
803 H 2.353894346023452 40.520029937973845 7.878962051884571 H 0.0 **** 0.06
804 H 1.1037280064503818 41.67477876415816 7.355480779211973 H 0.0 **** 0.06
805 H 0.6765364359328032 40.334345541490706 8.445069824908671 H 0.0 **** 0.06
806 C 118.7069917477942 46.08274058306404 4.999198634496452 C 0.0 **** -0.24
807 H 117.8269549362301 46.11998620536508 5.640930992652613 H 0.0 **** 0.06
808 H 118.44040841832185 46.41892279268217 3.997097676204703 H 0.0 **** 0.06
809 H 119.07887299321808 45.059085529744266 4.951520971330865 H 0.0 **** 0.06
810 H 119.48142953317176 46.73205445917756 5.4069706917399 H 0.0 **** 0.06
811 C 66.3677072707501 43.29715223876604 79.69983388673074 C 0.0 **** -0.24
812 H 67.00051863845394 42.42578379796571 79.86752189746997 H 0.0 **** 0.06
813 H 65.32061651040388 43.00888486634139 79.7926473111232 H 0.0 **** 0.06
814 H 66.54834642994416 43.69123534627273 78.69941572143344 H 0.0 **** 0.06
815 H 66.601325967482 44.06370365184762 80.43979726152739 H 0.0 **** 0.06
816 C 58.88096300021242 94.54446863524137 104.87784915110149 C 0.0 **** -0.24
817 H 58.22741362617931 93.67873609125397 104.97996569533709 H 0.0 **** 0.06
818 H 58.28139298030298 95.4287567376667 104.65730907799718 H 0.0 **** 0.06
819 H 59.58739343364573 94.37224102178126 104.06555167748354 H 0.0 **** 0.06
820 H 59.42747417072775 94.69943087889811 105.80801886790596 H 0.0 **** 0.06
821 C 53.84685905899718 129.65041552597066 51.44293265893924 C 0.0 **** -0.24
822 H 53.77402640096162 129.8051167861847 50.36637964152035 H 0.0 **** 0.06
823 H 52.8505369637509 129.68372979603564 51.88253913194012 H 0.0 **** 0.06
824 H 54.46434692323092 130.43465355414273 51.88106384048979 H 0.0 **** 0.06
825 H 54.29931287169927 128.6788261143386 51.64077860339114 H 0.0 **** 0.06
826 C 30.13070048954699 62.39977043518854 52.30491997563672 C 0.0 **** -0.24
827 H 31.066579314920297 62.95764643468411 52.34328257482059 H 0.0 **** 0.06
828 H 30.268161304637772 61.50344892458807 51.700099553355074 H 0.0 **** 0.06
829 H 29.35471204539587 63.0230946962059 51.86030409080996 H 0.0 **** 0.06
830 H 29.83626560432196 62.11594908319623 53.31481994819222 H 0.0 **** 0.06
831 C 120.38018242539552 119.8651572908619 66.27749138650142 C 0.0 **** -0.24
832 H 119.8280558429784 120.7749623881441 66.0391251459979 H 0.0 **** 0.06
833 H 119.80951914364974 118.99699444821994 65.94896570736125 H 0.0 **** 0.06
834 H 120.53891795704592 119.80948448856815 67.35489479063028 H 0.0 **** 0.06
835 H 121.34325006487526 119.88175320536307 65.76818233011784 H 0.0 **** 0.06
836 C 43.51662841018016 109.42580377415513 102.72451958298471 C 0.0 **** -0.24
837 H 43.346626147496465 109.79351402387765 101.71229435772321 H 0.0 **** 0.06
838 H 42.875753490095306 108.56336378009527 102.90921688394066 H 0.0 **** 0.06
839 H 43.28142539605604 110.21299742055578 103.44045543515871 H 0.0 **** 0.06
840 H 44.559948248834274 109.13336189744545 102.83456876925767 H 0.0 **** 0.06
841 C 40.197727723957286 3.9764849836451504 20.705228751883148 C 0.0 **** -0.24
842 H 40.1030919316118 2.89279959971401 20.764435628373732 H 0.0 **** 0.06
843 H 39.332415689542984 4.389016729206162 20.18468075870669 H 0.0 **** 0.06
844 H 41.106280598142575 4.233347931629396 20.16030987155829 H 0.0 **** 0.06
845 H 40.24868530691401 4.392726421772295 21.7114294626072 H 0.0 **** 0.06
846 C 8.27558482750645 125.76411933933602 67.69489032279418 C 0.0 **** -0.24
847 H 8.569495139848225 125.86254285122038 68.74021230549675 H 0.0 **** 0.06
848 H 8.538675259284918 124.76861672346718 67.3359996864431 H 0.0 **** 0.06
849 H 8.794794731243119 126.51464241786326 67.09971925696311 H 0.0 **** 0.06
850 H 7.198975147400258 125.91022706716987 67.60600493978754 H 0.0 **** 0.06
851 C 8.752663999112059 38.19925685540136 36.660282212046674 C 0.0 **** -0.24
852 H 9.028028564145686 38.34569353039589 35.61605086649713 H 0.0 **** 0.06
853 H 8.747181162149182 39.16054332746816 37.17283431138957 H 0.0 **** 0.06
854 H 9.475750368362675 37.53627916723434 37.136389564922574 H 0.0 **** 0.06
855 H 7.76055030600801 37.752069624769064 36.71471034324936 H 0.0 **** 0.06
856 C 57.22150602683749 3.998431912199834 128.7222845800648 C 0.0 **** -0.24
857 H 57.17093390983163 2.9215429361442204 128.5666665469275 H 0.0 **** 0.06
858 H 56.53395685532955 4.496709015080597 128.03796038617045 H 0.0 **** 0.06
859 H 58.23784535097056 4.345487766255246 128.53264768454662 H 0.0 **** 0.06
860 H 56.94378932658343 4.230648979357369 129.7500438393946 H 0.0 **** 0.06
861 C 39.192371237637985 119.62814857150082 77.34222514691386 C 0.0 **** -0.24
862 H 39.503585283947075 118.63920106319043 77.00543274213601 H 0.0 **** 0.06
863 H 38.403128255180974 119.52696867171153 78.08678849504909 H 0.0 **** 0.06
864 H 38.81950633530175 120.19967097361587 76.49189908432689 H 0.0 **** 0.06
865 H 40.04511488643618 120.14635511268496 77.78224649679773 H 0.0 **** 0.06
866 C 45.6475363328768 110.34097572388208 74.5936006623154 C 0.0 **** -0.24
867 H 46.667631460062 110.70658502039072 74.70555230560859 H 0.0 **** 0.06
868 H 44.98895280027903 111.1728829258791 74.34048861942318 H 0.0 **** 0.06
869 H 45.318577080090904 109.88949666154042 75.52895560600638 H 0.0 **** 0.06
870 H 45.613907903224046 109.59563056264858 73.79880370453219 H 0.0 **** 0.06
871 C 38.85791081999735 118.62560456842789 127.13205451776315 C 0.0 **** -0.24
872 H 38.53258358597884 118.81832572843393 128.15461857135625 H 0.0 **** 0.06
873 H 39.476230780400904 117.72729071910021 127.11107321082426 H 0.0 **** 0.06
874 H 39.43769150794325 119.47392399967134 126.7699717943695 H 0.0 **** 0.06
875 H 37.985724067133056 118.48174936024725 126.4940980669897 H 0.0 **** 0.06
876 C 57.56703151513419 10.78984687843531 43.431861537363375 C 0.0 **** -0.24
877 H 56.57205243846528 11.219267642311245 43.549593955375144 H 0.0 **** 0.06
878 H 58.312674333258556 11.497167996393742 43.796693232081964 H 0.0 **** 0.06
879 H 57.74946385518663 10.580669218630003 42.377992668026195 H 0.0 **** 0.06
880 H 57.63358998502538 9.863974670782117 44.00330016130377 H 0.0 **** 0.06
881 C 64.00825756236492 109.59648588429289 77.68914065309775 C 0.0 **** -0.24
882 H 63.92981116339325 110.57941988670024 78.15278095848652 H 0.0 **** 0.06
883 H 64.89180421683002 109.56620938155959 77.05044887256349 H 0.0 **** 0.06
884 H 63.11915724166903 109.40687753921043 77.08766931433365 H 0.0 **** 0.06
885 H 64.0929604649229 108.83464845213597 78.46423589137339 H 0.0 **** 0.06
886 C 54.47642916824782 119.869630515577 51.638983323397895 C 0.0 **** -0.24
887 H 53.84060120818529 119.25255540405665 52.274140471600276 H 0.0 **** 0.06
888 H 54.749765818194845 120.77957198303972 52.174972294246004 H 0.0 **** 0.06
889 H 53.936120816853546 120.13246931304677 50.72898322537722 H 0.0 **** 0.06
890 H 55.3780065994754 119.3154883619531 51.379273798276756 H 0.0 **** 0.06
891 C 21.850080357470162 108.83220562325091 119.47446936816121 C 0.0 **** -0.24
892 H 22.15123534588365 109.32885270944816 118.55239356599105 H 0.0 **** 0.06
893 H 22.70801363051028 108.31505372399907 119.90465526647412 H 0.0 **** 0.06
894 H 21.06124511897775 108.11105429967292 119.25825591179762 H 0.0 **** 0.06
895 H 21.48033021559216 109.5734885867992 120.1817930435645 H 0.0 **** 0.06
896 C 37.10108415391509 21.131403728983287 8.140454541954028 C 0.0 **** -0.24
897 H 36.545496021629305 20.19770787891167 8.234137092386135 H 0.0 **** 0.06
898 H 36.441564532627105 21.970032925419275 8.367105144077243 H 0.0 **** 0.06
899 H 37.4772175620806 21.22921727677391 7.121921450483882 H 0.0 **** 0.06
900 H 37.93857859336204 21.12721703867365 8.837795909308255 H 0.0 **** 0.06
901 C 78.07098363259847 40.008784145833545 126.42566634666633 C 0.0 **** -0.24
902 H 77.20146650915217 39.73872215332193 125.82611402893878 H 0.0 **** 0.06
903 H 77.90825864550249 39.70186828738383 127.45929188695953 H 0.0 **** 0.06
904 H 78.21998383598498 41.08712318401973 126.38511702992867 H 0.0 **** 0.06
905 H 78.95357202281019 39.505317083483476 126.0317703046984 H 0.0 **** 0.06
906 C 22.243236475868372 16.266214214316875 86.78767463037019 C 0.0 **** -0.24
907 H 23.09217148816765 16.929565128053213 86.62429365987703 H 0.0 **** 0.06
908 H 21.609137316257915 16.67568280991742 87.57473387625257 H 0.0 **** 0.06
909 H 22.603712685490052 15.281942817789911 87.08606727673998 H 0.0 **** 0.06
910 H 21.66792441355804 16.177666101506617 85.86560370861136 H 0.0 **** 0.06
911 C 113.72484977373433 128.61471731618704 98.11542394132196 C 0.0 **** -0.24
912 H 114.5716666511657 128.6516019495395 98.80053791352876 H 0.0 **** 0.06
913 H 112.85252470443554 129.0614509098087 98.59205536801016 H 0.0 **** 0.06
914 H 113.5092340544707 127.57723681718963 97.86016419032511 H 0.0 **** 0.06
915 H 113.96757312076655 129.16862910916203 97.20827533013602 H 0.0 **** 0.06
916 C 114.88199710865997 10.83686876552968 89.24898989134212 C 0.0 **** -0.24
917 H 114.96622571725534 11.471783001916247 90.13131747093391 H 0.0 **** 0.06
918 H 114.31437408389603 9.939743375864065 89.50003115422837 H 0.0 **** 0.06
919 H 115.87735396553778 10.553626912636226 88.90869858268479 H 0.0 **** 0.06
920 H 114.36805264639004 11.38252433621096 88.45733745185046 H 0.0 **** 0.06
921 C 103.91609889434454 86.62696790618305 31.848519620222874 C 0.0 **** -0.24
922 H 104.38856250725937 85.76476855738308 32.319474930386946 H 0.0 **** 0.06
923 H 104.00921112159759 86.54510348121833 30.764994876081687 H 0.0 **** 0.06
924 H 104.40589616419186 87.53950275007782 32.18828315627297 H 0.0 **** 0.06
925 H 102.86162958509476 86.65746546231091 32.12167124098471 H 0.0 **** 0.06
926 C 43.36095245493263 9.888508063123851 25.114787390158313 C 0.0 **** -0.24
927 H 44.097225716121244 10.009700651590776 25.908521878614636 H 0.0 **** 0.06
928 H 43.027963339036674 10.869926705650101 24.774814960721073 H 0.0 **** 0.06
929 H 42.506907969322214 9.326592059643588 25.493779380828585 H 0.0 **** 0.06
930 H 43.810263462384626 9.348754643948809 24.281921094554477 H 0.0 **** 0.06
931 C 113.31812439481428 100.73298752220833 64.91961288672304 C 0.0 **** -0.24
932 H 112.54774908838374 100.20108856265865 64.36123321463656 H 0.0 **** 0.06
933 H 114.0130216218543 101.20231239184503 64.22249056059073 H 0.0 **** 0.06
934 H 113.85874775365028 100.0293952246157 65.55277932504934 H 0.0 **** 0.06
935 H 112.85369858882655 101.49907526948401 65.54073342169565 H 0.0 **** 0.06
936 C 12.580636122409487 27.89947465958113 59.62192458651096 C 0.0 **** -0.24
937 H 12.909442659373212 28.052015897899537 58.594116295509735 H 0.0 **** 0.06
938 H 11.70546910449508 27.25018730105836 59.63098311132444 H 0.0 **** 0.06
939 H 12.324993039274602 28.860711131244784 60.06759545250085 H 0.0 **** 0.06
940 H 13.383480399222037 27.434518823741485 60.19528022187305 H 0.0 **** 0.06
941 C 62.625120280725525 63.3255917433397 38.57543780525749 C 0.0 **** -0.24
942 H 62.01725459198758 62.46962172976862 38.282463223886296 H 0.0 **** 0.06
943 H 62.002783456815564 64.05132147298859 39.09971707138418 H 0.0 **** 0.06
944 H 63.05225132755177 63.78877455563689 37.68590746357736 H 0.0 **** 0.06
945 H 63.427873521355394 62.99288207918501 39.232305294710756 H 0.0 **** 0.06
946 C 86.45954426035223 106.76487445783866 59.200734207742016 C 0.0 **** -0.24
947 H 86.18815329771783 107.47638279296032 59.98104462167575 H 0.0 **** 0.06
948 H 86.8833368368661 107.30243344306669 58.351988246942796 H 0.0 **** 0.06
949 H 85.57101955387154 106.22031639136682 58.880434572489065 H 0.0 **** 0.06
950 H 87.19622617230394 106.06250043103026 59.591501391297186 H 0.0 **** 0.06
951 C 124.88481575490638 110.45037285866795 57.699286254266724 C 0.0 **** -0.24
952 H 123.93919544615596 110.99256035988321 57.717353811369776 H 0.0 **** 0.06
953 H 125.24670754542012 110.38711517906216 56.67300740624211 H 0.0 **** 0.06
954 H 124.73402007820175 109.4452139248857 58.09375258249537 H 0.0 **** 0.06
955 H 125.6173719632636 110.97525933232151 58.311207798699115 H 0.0 **** 0.06
956 C 73.45966594859829 16.42006106789655 108.33271886482878 C 0.0 **** -0.24
957 H 74.16165188061137 15.969226003920511 109.03425929217389 H 0.0 **** 0.06
958 H 72.63925714074247 16.877861916439514 108.88506768624417 H 0.0 **** 0.06
959 H 73.06689926342375 15.650560145700283 107.66851851777507 H 0.0 **** 0.06
960 H 73.972623384938 17.18117432494534 107.74499296490573 H 0.0 **** 0.06
961 C 31.01734335005044 29.116479694690355 66.93350104726332 C 0.0 **** -0.24
962 H 30.467000145124338 29.893737533639836 67.46431656674255 H 0.0 **** 0.06
963 H 30.31615189096042 28.47760662982617 66.39538183466888 H 0.0 **** 0.06
964 H 31.5797459955026 28.516721342245887 67.65019117512739 H 0.0 **** 0.06
965 H 31.706062242631994 29.577732241759605 66.22606778996308 H 0.0 **** 0.06
966 C 35.892906419469114 94.50681607223578 62.593797368428056 C 0.0 **** -0.24
967 H 36.02745331801452 93.45504852716263 62.84690534634075 H 0.0 **** 0.06
968 H 35.811307735081044 94.61057638907862 61.51096911616639 H 0.0 **** 0.06
969 H 36.74908094993708 95.07783862490501 62.95051965461221 H 0.0 **** 0.06
970 H 34.98431966549202 94.88082192605336 63.064835748880796 H 0.0 **** 0.06
971 C 9.45830632695484 63.3465587177532 52.62318700967353 C 0.0 **** -0.24
972 H 9.755265230152546 62.297865026982976 52.65241817944417 H 0.0 **** 0.06
973 H 9.331900631971934 63.65888173215754 51.58595006647914 H 0.0 **** 0.06
974 H 10.230412533784687 63.9551678631116 53.09458961971512 H 0.0 **** 0.06
975 H 8.518234806807769 63.47219601808601 53.15890072635574 H 0.0 **** 0.06
976 C 101.56937893085843 76.79405057713636 87.87419605555914 C 0.0 **** -0.24
977 H 101.88169760876404 76.62874112925616 88.90538968756317 H 0.0 **** 0.06
978 H 102.29212313093376 77.44004691320391 87.37582669319914 H 0.0 **** 0.06
979 H 100.58854821089682 77.26994829398822 87.86434924834083 H 0.0 **** 0.06
980 H 101.5155219505652 75.83800854177838 87.35357765979438 H 0.0 **** 0.06
981 C 101.80436474824508 112.91522103899253 96.94845503705241 C 0.0 **** -0.24
982 H 102.25834905141855 113.43362683978599 97.79359538285999 H 0.0 **** 0.06
983 H 102.3500545984626 113.1618395924183 96.03691270411586 H 0.0 **** 0.06
984 H 100.76600276357559 113.22797053804801 96.84598299158694 H 0.0 **** 0.06
985 H 101.84523986759419 111.83918251487539 97.11687646473825 H 0.0 **** 0.06
986 C 37.173457483403496 77.08041878898995 38.47878150425274 C 0.0 **** -0.24
987 H 36.774486736782904 76.06823586160425 38.424417425165856 H 0.0 **** 0.06
988 H 36.514203334569544 77.69861337388016 39.0883616113684 H 0.0 **** 0.06
989 H 37.23997495448725 77.50018861413831 37.47519285651656 H 0.0 **** 0.06
990 H 38.166732581677024 77.05573444198818 38.92868351193995 H 0.0 **** 0.06
991 C 101.98284605615737 90.99100257377404 128.48151639706458 C 0.0 **** -0.24
992 H 102.95446968538647 91.23062624123094 128.911994523074 H 0.0 **** 0.06
993 H 101.67327079854323 89.99938457909528 128.8113138672723 H 0.0 **** 0.06
994 H 102.05397068691519 91.00682409794271 127.39343390977496 H 0.0 **** 0.06
995 H 101.2484106682382 91.72803839923967 128.80769176896968 H 0.0 **** 0.06
996 C 46.96152386280622 1.8282963156771999 109.39421708306998 C 0.0 **** -0.24
997 H 46.59721207300245 0.8187905676653955 109.20488533697949 H 0.0 **** 0.06
998 H 47.561146905513226 2.162531257919042 108.54692803036812 H 0.0 **** 0.06
999 H 47.573952178645754 1.8298540473141323 110.29610877400273 H 0.0 **** 0.06
1000 H 46.114920029038046 2.5012564238454686 109.52856769360864 H 0.0 **** 0.06
1001 C 27.495792710818606 126.54441759554769 128.5988491444852 C 0.0 **** -0.24
1002 H 28.338712286431942 125.85363652369226 128.57748159810677 H 0.0 **** 0.06
1003 H 26.58092230963681 126.00913842191858 128.3427458824832 H 0.0 **** 0.06
1004 H 27.663089016176407 127.34320259971629 127.87615906878744 H 0.0 **** 0.06
1005 H 27.400400946516328 126.97070971455875 129.59676689148017 H 0.0 **** 0.06
1006 C 32.59225345155386 125.07029105871622 124.91031282772717 C 0.0 **** -0.24
1007 H 32.07496089965531 124.3082259888673 125.49335718658568 H 0.0 **** 0.06
1008 H 31.997592340774588 125.98372282807345 124.8980231054692 H 0.0 **** 0.06
1009 H 32.73212671299541 124.7132207989207 123.88976013564637 H 0.0 **** 0.06
1010 H 33.56293710082423 125.2748605777729 125.36098452972087 H 0.0 **** 0.06
1011 C 4.626350822907341 52.993513738540244 20.804239215223788 C 0.0 **** -0.24
1012 H 3.6897280359253273 53.399069471302354 21.185910190623815 H 0.0 **** 0.06
1013 H 4.430549379035199 52.41566430844172 19.90153480868321 H 0.0 **** 0.06
1014 H 5.077352963422868 52.348510187563704 21.55861046390919 H 0.0 **** 0.06
1015 H 5.308451716375146 53.81153737854804 20.571009274306846 H 0.0 **** 0.06
1016 C 57.1090806490987 110.65638834063131 38.63736359075507 C 0.0 **** -0.24
1017 H 57.207939171650864 111.52277560501594 37.983997288683184 H 0.0 **** 0.06
1018 H 58.09945147896988 110.28059931996987 38.8967663090571 H 0.0 **** 0.06
1019 H 56.5479198658537 109.87652250580994 38.12322130762425 H 0.0 **** 0.06
1020 H 56.58033655910012 110.94510700265872 39.54596180351601 H 0.0 **** 0.06
1021 C 15.60725354072514 40.41092274307999 128.600455715137 C 0.0 **** -0.24
1022 H 16.520648083716708 39.84537366843797 128.78843762731452 H 0.0 **** 0.06
1023 H 15.287299728154437 40.251956942752805 127.57087770561844 H 0.0 **** 0.06
1024 H 15.797267768181769 41.47138909169321 128.76335794882976 H 0.0 **** 0.06
1025 H 14.825396201422791 40.07295382022065 129.28146867018978 H 0.0 **** 0.06
1026 C 71.31155063918061 0.9304247729589825 118.92271059048751 C 0.0 **** -0.24
1027 H 71.54329693183752 0.15234278981415628 118.1945735016925 H 0.0 **** 0.06
1028 H 70.54090135931835 0.5707480783751677 119.6048417059308 H 0.0 **** 0.06
1029 H 70.9517585860902 1.817689895372272 118.40222838892572 H 0.0 **** 0.06
1030 H 72.21006961997244 1.1792927831073214 119.48631307286705 H 0.0 **** 0.06
1031 C 71.43684623510244 105.37716647733737 129.9305145943921 C 0.0 **** -0.24
1032 H 71.51848619041218 105.27005474540528 131.01222179658694 H 0.0 **** 0.06
1033 H 72.43362182739148 105.3827580746638 129.49005166267048 H 0.0 **** 0.06
1034 H 70.93090936288732 106.31455473663243 129.69691522405444 H 0.0 **** 0.06
1035 H 70.8637058265375 104.54394212734263 129.52543354835709 H 0.0 **** 0.06
1036 C 114.25110006763998 28.35471138161163 1.8485317477674243 C 0.0 **** -0.24
1037 H 113.62276761150008 28.219147562803464 2.7298922585888192 H 0.0 **** 0.06
1038 H 113.6660375740824 28.150668272622667 0.951244273580528 H 0.0 **** 0.06
1039 H 115.096153995208 27.66876014972135 1.8958727298753786 H 0.0 **** 0.06
1040 H 114.61663063016158 29.380752576037544 1.8188114260682084 H 0.0 **** 0.06
1041 C 85.48815846348634 43.95217954111223 105.6263196128413 C 0.0 **** -0.24
1042 H 85.2097552127617 44.50212615392189 106.52492841874587 H 0.0 **** 0.06
1043 H 84.6446691061073 43.9332475571984 104.93541743899506 H 0.0 **** 0.06
1044 H 85.76161584219557 42.93217874078056 105.89485611628919 H 0.0 **** 0.06
1045 H 86.33708078956403 44.44226186976948 105.14932728572694 H 0.0 **** 0.06
1046 C 43.59758708406491 13.933655897701925 94.59818966261119 C 0.0 **** -0.24
1047 H 43.86262804928924 14.902551717383417 95.02109347327696 H 0.0 **** 0.06
1048 H 43.13488358206979 13.315831719339585 95.36860013268296 H 0.0 **** 0.06
1049 H 44.49608060069113 13.440802256903709 94.22744833316685 H 0.0 **** 0.06
1050 H 42.895997373625164 14.076065161381337 93.77579256203008 H 0.0 **** 0.06
1051 C 27.962974038472794 34.879007776634296 40.94357245107974 C 0.0 **** -0.24
1052 H 28.99860719916589 35.115410794343575 40.69942693042315 H 0.0 **** 0.06
1053 H 27.938028603622882 34.14459204771316 41.749013179369534 H 0.0 **** 0.06
1054 H 27.466346852353723 34.47169107152149 40.063710569268274 H 0.0 **** 0.06
1055 H 27.449693124024378 35.78602459072721 41.26287743210321 H 0.0 **** 0.06
1056 C 71.20537061112472 109.04369046349859 44.37109437207799 C 0.0 **** -0.24
1057 H 71.36916698738676 108.00631288946263 44.665310391935066 H 0.0 **** 0.06
1058 H 71.72098218910716 109.70426167143083 45.06822266361949 H 0.0 **** 0.06
1059 H 70.13775131644334 109.26076195804248 44.3856691405659 H 0.0 **** 0.06
1060 H 71.59478357495993 109.20154627571773 43.365015551939315 H 0.0 **** 0.06
1061 C 22.249656155758473 106.41334254916708 113.24051573584117 C 0.0 **** -0.24
1062 H 22.334371327090565 105.68213250170359 114.04483141587488 H 0.0 **** 0.06
1063 H 21.63016845274003 106.00417330853301 112.44178358611546 H 0.0 **** 0.06
1064 H 23.241683747738207 106.64040162842156 112.85138742205604 H 0.0 **** 0.06
1065 H 21.791446231827024 107.32455820014272 113.62487255830209 H 0.0 **** 0.06
1066 C 80.17727562753267 17.151076795257367 28.67372588678711 C 0.0 **** -0.24
1067 H 80.7064071032382 16.423468668880297 28.059153914606128 H 0.0 **** 0.06
1068 H 80.80810480260524 18.028156499860565 28.82164569209894 H 0.0 **** 0.06
1069 H 79.93990592350612 16.706878353967 29.639918303780576 H 0.0 **** 0.06
1070 H 79.2547199974279 17.447180301234162 28.17386358243718 H 0.0 **** 0.06
1071 C 13.284033595788628 101.78815537864668 1.5883836843953247 C 0.0 **** -0.24
1072 H 13.172023860869217 100.81018310248844 1.1189972945513773 H 0.0 **** 0.06
1073 H 14.343529158495613 102.00382096049294 1.7271676543177463 H 0.0 **** 0.06
1074 H 12.782648790129628 101.7849276520404 2.5567004611943425 H 0.0 **** 0.06
1075 H 12.837364724475066 102.5504374914341 0.9503520664797023 H 0.0 **** 0.06
1076 C 36.27154169935211 113.28430953469062 34.727669048072016 C 0.0 **** -0.24
1077 H 36.04426992884649 113.69827818976755 33.74584986795975 H 0.0 **** 0.06
1078 H 37.08597883967667 113.8491320835772 35.179927860535486 H 0.0 **** 0.06
1079 H 36.56638948267668 112.23994023447686 34.62213679249169 H 0.0 **** 0.06
1080 H 35.386871705507616 113.34903967438625 35.362289850610296 H 0.0 **** 0.06
1081 C 79.84845557020367 72.4323000681035 114.68350563001752 C 0.0 **** -0.24
1082 H 79.84573670618076 72.39601015680131 115.77251025460794 H 0.0 **** 0.06
1083 H 79.06522084407149 73.10939861783234 114.34103161755576 H 0.0 **** 0.06
1084 H 79.66647557219781 71.43441701408724 114.28556328175995 H 0.0 **** 0.06
1085 H 80.81719637824588 72.79145144637232 114.33473054581117 H 0.0 **** 0.06
1086 C 60.19700510130876 108.484316660851 32.96185601063053 C 0.0 **** -0.24
1087 H 60.03572021997901 109.04133779331073 33.884465397438305 H 0.0 **** 0.06
1088 H 61.15189117101201 108.77603347118884 32.52447931736572 H 0.0 **** 0.06
1089 H 59.39267742528932 108.70489224557036 32.2595769284481 H 0.0 **** 0.06
1090 H 60.20683662937171 107.4160515518717 33.179218591952406 H 0.0 **** 0.06
1091 C 67.43967482450844 5.985235437831378 62.89524497929625 C 0.0 **** -0.24
1092 H 67.79930406875604 5.200441748710915 62.22984048879863 H 0.0 **** 0.06
1093 H 68.28519839415677 6.5702290091929 63.2578769053186 H 0.0 **** 0.06
1094 H 66.91975182189205 5.533650131121362 63.7406929692645 H 0.0 **** 0.06
1095 H 66.75292793051537 6.634703854639653 62.352724076824074 H 0.0 **** 0.06
1096 C 110.66342985192296 58.08721632655687 62.56170786535175 C 0.0 **** -0.24
1097 H 110.75325491489255 58.22383153271369 63.63966438017431 H 0.0 **** 0.06
1098 H 111.15902198395685 58.912204496698365 62.04862161119431 H 0.0 **** 0.06
1099 H 109.60878943756063 58.067376742266845 62.285846498542256 H 0.0 **** 0.06
1100 H 111.13192633636388 57.14641829250192 62.273939671211195 H 0.0 **** 0.06
1101 C 3.315574154416879 118.98770112398228 31.94726903603572 C 0.0 **** -0.24
1102 H 2.396273520480122 118.63272008640064 31.481983908608726 H 0.0 **** 0.06
1103 H 3.151071925323663 119.12858034082623 33.01543921019078 H 0.0 **** 0.06
1104 H 3.607390719592672 119.93555678636844 31.49557425194442 H 0.0 **** 0.06
1105 H 4.106313104738206 118.2531052844163 31.794424855811855 H 0.0 **** 0.06
1106 C 84.71557972742343 64.89338988938633 82.12989174446254 C 0.0 **** -0.24
1107 H 84.34817693458244 65.30395307497216 83.07050300261254 H 0.0 **** 0.06
1108 H 84.2041016429086 65.37665890514629 81.29752542428676 H 0.0 **** 0.06
1109 H 84.52257780108295 63.82063473265836 82.10183570976301 H 0.0 **** 0.06
1110 H 85.78872830467738 65.0711692677285 82.0500032021409 H 0.0 **** 0.06
1111 C 44.5441501690685 40.464491814525104 15.379826493959456 C 0.0 **** -0.24
1112 H 44.97272638904977 39.87708647596375 14.567217784390863 H 0.0 **** 0.06
1113 H 44.297264983848734 39.80517038463512 16.213161084032492 H 0.0 **** 0.06
1114 H 43.64000464401006 40.962008732769334 15.029853322707595 H 0.0 **** 0.06
1115 H 45.26596595979392 41.211568043005855 15.709273787035357 H 0.0 **** 0.06
1116 C 11.637335742729306 103.81334935627208 28.934370834750126 C 0.0 **** -0.24
1117 H 11.575837977833373 102.92699718012798 28.303414987547825 H 0.0 **** 0.06
1118 H 10.718538259410707 103.91143900477846 29.513837968001297 H 0.0 **** 0.06
1119 H 11.769187397817518 104.69660509732483 28.308902256745938 H 0.0 **** 0.06
1120 H 12.486029036987475 103.71820137248372 29.612711530975304 H 0.0 **** 0.06
1121 C 115.33521283509828 30.101182093059577 31.547512735105315 C 0.0 **** -0.24
1122 H 116.22640226833911 29.777491334313908 32.08555564957044 H 0.0 **** 0.06
1123 H 115.35762098389716 31.184588734612873 31.42762769066192 H 0.0 **** 0.06
1124 H 114.44686622736145 29.816094321054464 32.11062702593392 H 0.0 **** 0.06
1125 H 115.31195013628769 29.627982243771612 30.56615592610737 H 0.0 **** 0.06
1126 C 80.64103282415381 91.14658786886247 6.205764866940264 C 0.0 **** -0.24
1127 H 81.11214871961614 92.06739573170196 6.549919152587691 H 0.0 **** 0.06
1128 H 80.83197885506839 91.01812124572757 5.139264263324328 H 0.0 **** 0.06
1129 H 79.5661094884756 91.20099355900345 6.378728233113467 H 0.0 **** 0.06
1130 H 81.05550935094892 90.30067246933166 6.75350456327423 H 0.0 **** 0.06
1131 C 93.23401224832317 63.10429704557774 73.87248025167774 C 0.0 **** -0.24
1132 H 92.22464893058005 62.83733903787916 74.18320762788632 H 0.0 **** 0.06
1133 H 93.20520883447382 63.527353756399265 72.86770270208935 H 0.0 **** 0.06
1134 H 93.86244246223387 62.21268657133129 73.87382130564536 H 0.0 **** 0.06
1135 H 93.64510114238692 63.838737238841475 74.56503782288054 H 0.0 **** 0.06
1136 C 83.32987191922344 113.22217553570627 59.67362893289737 C 0.0 **** -0.24
1137 H 82.24375487379251 113.30452213238661 59.71438762191492 H 0.0 **** 0.06
1138 H 83.62095429540936 112.1825093482748 59.82258772930197 H 0.0 **** 0.06
1139 H 83.77067904378768 113.83955350263571 60.45719199304378 H 0.0 **** 0.06
1140 H 83.68395636132016 113.56382067037393 58.701386556989206 H 0.0 **** 0.06
1141 C 57.35462684839115 22.64530564163313 70.37238949414429 C 0.0 **** -0.24
1142 H 56.48309403050746 22.5629724206961 69.72290950088056 H 0.0 **** 0.06
1143 H 57.940381445546336 23.51846260039264 70.08430969746156 H 0.0 **** 0.06
1144 H 57.96645446345116 21.74818596434082 70.27482538304025 H 0.0 **** 0.06
1145 H 57.02755039433049 22.75132349782882 71.40658176763849 H 0.0 **** 0.06
1146 C 41.39533170081927 123.06201220022746 69.34963506469666 C 0.0 **** -0.24
1147 H 41.48211081872677 123.09220313181669 70.43642641698185 H 0.0 **** 0.06
1148 H 41.811605182186554 123.97638128963928 68.92688451767057 H 0.0 **** 0.06
1149 H 40.34542009330059 122.97675981290286 69.07170693529494 H 0.0 **** 0.06
1150 H 41.9431852665862 122.20122033843279 68.96665426520441 H 0.0 **** 0.06
1151 C 94.52205784532131 123.90427628962266 73.26951401630075 C 0.0 **** -0.24
1152 H 93.77523033489452 124.67528999369415 73.07878374913301 H 0.0 **** 0.06
1153 H 94.09549086540264 122.92459848643705 73.05236999332976 H 0.0 **** 0.06
1154 H 94.82846863700375 123.94519104970107 74.31450820253244 H 0.0 **** 0.06
1155 H 95.38915125994026 124.07303316262357 72.63040085217158 H 0.0 **** 0.06
1156 C 124.52337027899675 59.8684331524002 130.65405713509992 C 0.0 **** -0.24
1157 H 124.0108325820618 59.32263172324991 129.86138354221652 H 0.0 **** 0.06
1158 H 124.7009200846927 59.20225431093742 131.49873596541795 H 0.0 **** 0.06
1159 H 123.9053077595835 60.70715172167124 130.97565066175687 H 0.0 **** 0.06
1160 H 125.47692515158295 60.24251597949166 130.28019130058686 H 0.0 **** 0.06
1161 C 25.616479505818347 33.580450368102376 4.602523515721927 C 0.0 **** -0.24
1162 H 25.986924777433927 33.660596371254385 5.624718904504903 H 0.0 **** 0.06
1163 H 26.39280001888781 33.15500509634953 3.9667246158872302 H 0.0 **** 0.06
1164 H 25.34693011928914 34.57005651651281 4.234629203022777 H 0.0 **** 0.06
1165 H 24.737333414598396 32.93492087318586 4.584905552497958 H 0.0 **** 0.06
1166 C 86.01520949567131 55.189999548241005 119.17959900248314 C 0.0 **** -0.24
1167 H 86.77354448353891 54.82285635304925 119.87151331692397 H 0.0 **** 0.06
1168 H 85.44334376974513 54.34971423687864 118.78772328636146 H 0.0 **** 0.06
1169 H 86.49949896671163 55.71611658097689 118.35755582287885 H 0.0 **** 0.06
1170 H 85.346965955759 55.87217601140625 119.7040379881289 H 0.0 **** 0.06
1171 C 41.6815268136303 65.74154259317987 69.06334874475337 C 0.0 **** -0.24
1172 H 41.22259899323209 65.85968744591536 68.08105826049818 H 0.0 **** 0.06
1173 H 41.31215034924033 64.8282916265794 69.5282757137068 H 0.0 **** 0.06
1174 H 41.424772129530325 66.59713183448766 69.68832520600863 H 0.0 **** 0.06
1175 H 42.76433490588224 65.68327339934902 68.95372760667283 H 0.0 **** 0.06
1176 C 34.75275999738154 76.57729791805085 55.29713973412771 C 0.0 **** -0.24
1177 H 34.731854241328584 75.64636633577342 54.72993179438613 H 0.0 **** 0.06
1178 H 34.50984077311831 76.37295754286816 56.34017078037287 H 0.0 **** 0.06
1179 H 34.02176936585232 77.27062813508343 54.88313818335173 H 0.0 **** 0.06
1180 H 35.747482468854095 77.01828201635297 55.23504559377095 H 0.0 **** 0.06
1181 C 60.87364730931637 115.03864827157615 44.93149492195997 C 0.0 **** -0.24
1182 H 61.11183472691056 114.1749903985989 45.5535571262065 H 0.0 **** 0.06
1183 H 60.003012096012924 114.81363264049251 44.31660738453719 H 0.0 **** 0.06
1184 H 61.723714512872675 115.26858924314958 44.28929529741025 H 0.0 **** 0.06
1185 H 60.6575322696977 115.89611117053194 45.56878381662693 H 0.0 **** 0.06
1186 C 118.11017277262854 41.677321658951854 82.1133989552066 C 0.0 **** -0.24
1187 H 117.17224447973018 41.88978967668652 82.62611847680333 H 0.0 **** 0.06
1188 H 118.76018590341906 41.100038718478515 82.77134107827587 H 0.0 **** 0.06
1189 H 118.5990078456413 42.614881422400515 81.84907450187944 H 0.0 **** 0.06
1190 H 117.90668113071496 41.104736237821726 81.20822848260462 H 0.0 **** 0.06
1191 C 86.70671826327303 47.34204244492386 48.9761757800257 C 0.0 **** -0.24
1192 H 87.2655652749446 48.05270060920299 48.366870857647314 H 0.0 **** 0.06
1193 H 85.77232181891765 47.79979126887187 49.30128619386903 H 0.0 **** 0.06
1194 H 87.29963157296854 47.06604109242787 49.847547956120366 H 0.0 **** 0.06
1195 H 86.48999586103909 46.45153701264883 48.387003573790274 H 0.0 **** 0.06
1196 C 81.95501818161944 63.933650349281436 100.25043807522363 C 0.0 **** -0.24
1197 H 82.64102563081525 64.47734229664763 100.90004589613008 H 0.0 **** 0.06
1198 H 81.37527436445208 63.22663326060854 100.8435218730827 H 0.0 **** 0.06
1199 H 82.52391255653527 63.393371089755874 99.49344071148859 H 0.0 **** 0.06
1200 H 81.28126504106007 64.63833597945916 99.76381779787208 H 0.0 **** 0.06
1201 C 104.53030946643943 96.74268116055286 39.942501464921975 C 0.0 **** -0.24
1202 H 104.57796209896787 95.95382811543602 40.694102187128294 H 0.0 **** 0.06
1203 H 105.14189666088105 96.46214209687827 39.084842780397764 H 0.0 **** 0.06
1204 H 104.90634685411672 97.67269150999631 40.36799889352676 H 0.0 **** 0.06
1205 H 103.49724833838621 96.87928026821811 39.62365067270349 H 0.0 **** 0.06
1206 C 9.47371396669232 60.17852269040944 64.58000088943234 C 0.0 **** -0.24
1207 H 8.556056166348537 59.61446589365313 64.41149987548557 H 0.0 **** 0.06
1208 H 9.314955382216173 60.89730296774738 65.38383737082746 H 0.0 **** 0.06
1209 H 9.746639403070535 60.708068662697215 63.66765600230198 H 0.0 **** 0.06
1210 H 10.275073423932398 59.49394101946736 64.85641068850259 H 0.0 **** 0.06
1211 C 14.621911558249003 127.6629824784026 69.90494024769231 C 0.0 **** -0.24
1212 H 13.919720771743432 128.20742361320322 69.27390903089562 H 0.0 **** 0.06
1213 H 14.636957153273212 128.10958607798753 70.90010276325111 H 0.0 **** 0.06
1214 H 15.619185329170467 127.71557800555472 69.46797432814353 H 0.0 **** 0.06
1215 H 14.312157385328504 126.62062823898351 69.97926019358297 H 0.0 **** 0.06
1216 C 80.67480464923513 29.432807962143585 115.7777785509694 C 0.0 **** -0.24
1217 H 79.80482634983966 28.80150740991209 115.59642571377455 H 0.0 **** 0.06
1218 H 81.56385499207308 28.94993305038684 115.37189459052817 H 0.0 **** 0.06
1219 H 80.79837728131224 29.58214134016243 116.85003867438263 H 0.0 **** 0.06
1220 H 80.53014264080852 30.397898886461498 115.29054865523844 H 0.0 **** 0.06
1221 C 8.399076017598702 63.211155489015425 9.29319027017155 C 0.0 **** -0.24
1222 H 7.4260390187425855 63.051247407764265 9.758167582007758 H 0.0 **** 0.06
1223 H 8.849461247041063 62.248229870289165 9.054907250299578 H 0.0 **** 0.06
1224 H 9.044774494454145 63.7554428370899 9.981942909919042 H 0.0 **** 0.06
1225 H 8.27277407755588 63.79033692031176 8.377715946540832 H 0.0 **** 0.06
1226 C 16.424344026655092 109.74627722161067 45.01591244156074 C 0.0 **** -0.24
1227 H 15.406522872863093 109.83757210436922 44.635831069330244 H 0.0 **** 0.06
1228 H 16.980678795428332 110.65529244519429 44.78704911291044 H 0.0 **** 0.06
1229 H 16.911239302541333 108.89213283209702 44.545591480226555 H 0.0 **** 0.06
1230 H 16.396287186728614 109.59897958011601 46.096484882954286 H 0.0 **** 0.06
1231 C 87.22844903280647 99.72418237311572 68.8063173430732 C 0.0 **** -0.24
1232 H 86.62614455455648 99.78465511980707 69.71271506230927 H 0.0 **** 0.06
1233 H 87.3914327597479 100.72726554740544 68.41170748553573 H 0.0 **** 0.06
1234 H 86.70570559474035 99.12174817087535 68.06346689065569 H 0.0 **** 0.06
1235 H 88.18866846657234 99.26328348979033 69.03862391967122 H 0.0 **** 0.06
1236 C 113.48339460183901 8.85521349528645 105.24930997608217 C 0.0 **** -0.24
1237 H 114.19166311077826 8.944386591806278 104.42501912883873 H 0.0 **** 0.06
1238 H 112.75393046277158 8.078607542803525 105.01883709693733 H 0.0 **** 0.06
1239 H 112.96952302919222 9.805690302787468 105.39201701844891 H 0.0 **** 0.06
1240 H 114.01967331288027 8.59158684073563 106.160927550985 H 0.0 **** 0.06
1241 C 7.447954618227669 36.772327479460984 43.82142786947503 C 0.0 **** -0.24
1242 H 7.162205834975737 37.23213409394932 44.7676640971349 H 0.0 **** 0.06
1243 H 8.126646126521706 37.43743249557682 43.28587608031635 H 0.0 **** 0.06
1244 H 6.557159056607247 36.59917080723983 43.21777275887358 H 0.0 **** 0.06
1245 H 7.946405315225604 35.82269803751127 44.01475212686442 H 0.0 **** 0.06
1246 C 60.70921693796181 18.966408047658653 82.7824203916679 C 0.0 **** -0.24
1247 H 61.28274102267548 18.42277539037177 82.03129246714508 H 0.0 **** 0.06
1248 H 61.20028888346471 19.91532141837829 82.99794353492354 H 0.0 **** 0.06
1249 H 60.64900682587286 18.37169632635834 83.69409588249464 H 0.0 **** 0.06
1250 H 59.704200583846955 19.154140079246027 82.40503960203058 H 0.0 **** 0.06
1251 C 42.17694589108942 0.7347290961257613 73.29666765977686 C 0.0 **** -0.24
1252 H 41.69443292332733 0.8548308020638729 74.26684305997026 H 0.0 **** 0.06
1253 H 41.449625340352384 0.36761827827905336 72.57185734650625 H 0.0 **** 0.06
1254 H 42.99601653743815 0.020750137091795295 73.38391902399746 H 0.0 **** 0.06
1255 H 42.56840124398616 1.6968828738060893 72.96445334059672 H 0.0 **** 0.06
1256 C 76.26861949947826 10.097064521134868 24.335774891831363 C 0.0 **** -0.24
1257 H 75.8608698071028 9.11703441104098 24.088029778879275 H 0.0 **** 0.06
1258 H 75.54675087197651 10.86889898285483 24.067583254788588 H 0.0 **** 0.06
1259 H 77.19377386383873 10.255652438020096 23.782826727716156 H 0.0 **** 0.06
1260 H 76.47212319412805 10.14521228490797 25.406376409865743 H 0.0 **** 0.06
1261 C 49.41024894776754 19.591666675313363 81.85867769962061 C 0.0 **** -0.24
1262 H 49.43862643202044 20.681635240738593 81.85434681599418 H 0.0 **** 0.06
1263 H 49.805057092717746 19.214389147740604 80.91456714101511 H 0.0 **** 0.06
1264 H 48.38015166236864 19.255819388881555 81.98234545275687 H 0.0 **** 0.06
1265 H 50.01644645085807 19.21519239539918 82.6828568030644 H 0.0 **** 0.06
1266 C 81.13307554944492 72.62825193979975 22.734935402745265 C 0.0 **** -0.24
1267 H 80.99718917623721 71.74176330108091 23.355294425017803 H 0.0 **** 0.06
1268 H 82.00559388665909 72.49336614143884 22.096209322202867 H 0.0 **** 0.06
1269 H 81.28019413517933 73.49953825370167 23.374235667202413 H 0.0 **** 0.06
1270 H 80.24795778607029 72.77730873119471 22.11646544343489 H 0.0 **** 0.06
1271 C 127.34794460099329 45.56619356161141 34.6081990276433 C 0.0 **** -0.24
1272 H 126.54425043653237 44.94979908372588 35.01043276871158 H 0.0 **** 0.06
1273 H 128.2674768671502 44.981974103598446 34.57003467840621 H 0.0 **** 0.06
1274 H 127.4957179204838 46.43539524132174 35.249556173403235 H 0.0 **** 0.06
1275 H 127.0843979007457 45.896379712705766 33.60347433718434 H 0.0 **** 0.06
1276 C 110.3959204568057 1.2208146585789734 41.83896383963818 C 0.0 **** -0.24
1277 H 109.34091394708986 1.3734402809988921 41.615770998883285 H 0.0 **** 0.06
1278 H 110.9723322372779 1.2576404798317071 40.91424127457482 H 0.0 **** 0.06
1279 H 110.5310944457944 0.24783652517857035 42.312493221025434 H 0.0 **** 0.06
1280 H 110.7414539946879 2.003816652737072 42.51386080485912 H 0.0 **** 0.06
1281 C 75.89595078001153 91.37471920357592 42.6360299886239 C 0.0 **** -0.24
1282 H 75.68576275231325 91.2400166328859 43.69704303210344 H 0.0 **** 0.06
1283 H 74.9840768837038 91.20952839015888 42.061809224415754 H 0.0 **** 0.06
1284 H 76.65714020056052 90.65945334490698 42.32324743028718 H 0.0 **** 0.06
1285 H 76.2561120022315 92.3880036279258 42.46300992147599 H 0.0 **** 0.06
1286 C 76.55369089679454 115.63975504734054 40.93851864176591 C 0.0 **** -0.24
1287 H 75.81206089207656 115.42746147480482 40.16832135849151 H 0.0 **** 0.06
1288 H 76.11264839781384 115.47567736004365 41.92254333055348 H 0.0 **** 0.06
1289 H 76.87940706798247 116.67592696852194 40.85351786655585 H 0.0 **** 0.06
1290 H 77.41034471436599 114.97758452476997 40.80915110648468 H 0.0 **** 0.06
1291 C 107.43194721368812 16.91120067444959 79.30123460002733 C 0.0 **** -0.24
1292 H 106.8893925085419 16.149763275500476 78.74033711763045 H 0.0 **** 0.06
1293 H 107.72267139301155 17.719119173909178 78.628521649237 H 0.0 **** 0.06
1294 H 108.3234105997519 16.46927982110151 79.74619578274425 H 0.0 **** 0.06
1295 H 106.79046142551613 17.307264231455207 80.08840809234076 H 0.0 **** 0.06
1296 C 60.024450889301306 60.75344098262195 49.41882382235133 C 0.0 **** -0.24
1297 H 60.92807380320011 60.37555796358481 49.89764586749358 H 0.0 **** 0.06
1298 H 59.31898448439881 59.934825558797854 49.27859766889135 H 0.0 **** 0.06
1299 H 60.27891552501089 61.1849797626395 48.45077087944112 H 0.0 **** 0.06
1300 H 59.57307606799644 61.51915559021677 50.0499770505006 H 0.0 **** 0.06
1301 C 83.90669382872659 73.11995091005012 51.93836909497168 C 0.0 **** -0.24
1302 H 84.21403533504193 74.13295507733321 52.19780543844942 H 0.0 **** 0.06
1303 H 83.55420683681564 72.60800631130776 52.834075602265116 H 0.0 **** 0.06
1304 H 84.75434967595758 72.57936933778767 51.518899763836686 H 0.0 **** 0.06
1305 H 83.10267372886229 73.16271954132361 51.2031208133385 H 0.0 **** 0.06
1306 C 30.947514846558818 125.94928783395514 73.31125519666494 C 0.0 **** -0.24
1307 H 31.008305270822405 125.89235767202634 72.22474752834734 H 0.0 **** 0.06
1308 H 31.763024138425465 126.56565026336405 73.68950169830471 H 0.0 **** 0.06
1309 H 31.02495621576125 124.94561813354791 73.7318696965876 H 0.0 **** 0.06
1310 H 29.993819260236222 126.39107829926627 73.59879883419418 H 0.0 **** 0.06
1311 C 15.150290129835543 23.504502054577586 88.75032364861626 C 0.0 **** -0.24
1312 H 14.330146886711471 23.450923285761945 89.46618804805749 H 0.0 **** 0.06
1313 H 16.008422242025716 23.99001360686509 89.21551533317292 H 0.0 **** 0.06
1314 H 14.835005481013695 24.08092215926797 87.87984619622677 H 0.0 **** 0.06
1315 H 15.427321080417123 22.49804299835752 88.43858590276469 H 0.0 **** 0.06
1316 C 76.23265822922747 43.14649966910969 75.81061020217172 C 0.0 **** -0.24
1317 H 75.62004468489741 43.679460186056474 75.0824033032396 H 0.0 **** 0.06
1318 H 75.5856710674139 42.66384044786264 76.54379177209364 H 0.0 **** 0.06
1319 H 76.89221986847139 43.852373686559304 76.31588518872232 H 0.0 **** 0.06
1320 H 76.82997639196009 42.39177186289311 75.29877874958018 H 0.0 **** 0.06
1321 C 96.25620287334755 21.87884398727398 63.22819394872772 C 0.0 **** -0.24
1322 H 97.239737619847 21.598951365906395 63.60480510070914 H 0.0 **** 0.06
1323 H 95.80951455476901 21.028567871188528 62.711407122142134 H 0.0 **** 0.06
1324 H 96.35723493221047 22.714076632673887 62.533567037877106 H 0.0 **** 0.06
1325 H 95.61935309456976 22.17447490041325 64.06088482416635 H 0.0 **** 0.06
1326 C 71.46146602946796 41.41196689133816 75.18459196074897 C 0.0 **** -0.24
1327 H 71.13750444346793 41.16430834662506 76.19526183037433 H 0.0 **** 0.06
1328 H 70.69964793757931 42.023142145130194 74.69935228388519 H 0.0 **** 0.06
1329 H 71.60854990392464 40.49376547164789 74.61547335662979 H 0.0 **** 0.06
1330 H 72.39822290569641 41.96653040815677 75.22977242071786 H 0.0 **** 0.06
1331 C 125.33318237781039 92.38714366847347 93.22315310370583 C 0.0 **** -0.24
1332 H 125.5821714296703 93.06180068051577 92.40474197622937 H 0.0 **** 0.06
1333 H 126.05925673931235 91.5746001773054 93.25662832115263 H 0.0 **** 0.06
1334 H 124.3362189730903 91.97772815838704 93.06672336450704 H 0.0 **** 0.06
1335 H 125.357081620366 92.93497247718474 94.16537065410904 H 0.0 **** 0.06
1336 C 6.505706093404513 69.60299383910649 112.35689907239099 C 0.0 **** -0.24
1337 H 5.689006735599946 69.7143298787147 113.06890947750172 H 0.0 **** 0.06
1338 H 7.152351741555265 70.47915580719695 112.40651852988319 H 0.0 **** 0.06
1339 H 6.099916566733498 69.50770219906593 111.34974971274168 H 0.0 **** 0.06
1340 H 7.082547347931893 68.71155627491129 112.60177590871758 H 0.0 **** 0.06
1341 C 128.08027026672244 100.8748485227861 24.96310969819325 C 0.0 **** -0.24
1342 H 127.50951911593937 99.94572078083223 24.948992474780134 H 0.0 **** 0.06
1343 H 127.75726205398266 101.51192849628565 24.14019886978248 H 0.0 **** 0.06
1344 H 129.14225790395392 100.64983622888091 24.855200908240946 H 0.0 **** 0.06
1345 H 127.91237522512473 101.39006227970836 25.90926325371492 H 0.0 **** 0.06
1346 C 68.79353500173409 46.697417977921475 50.63780371357342 C 0.0 **** -0.24
1347 H 68.53680031632817 46.15859631254486 51.54984920694483 H 0.0 **** 0.06
1348 H 68.54683685216438 47.75287713661152 50.757380114815135 H 0.0 **** 0.06
1349 H 68.2289899660802 46.28498820499607 49.801797712923985 H 0.0 **** 0.06
1350 H 69.86071178768427 46.593479636076495 50.441653259522866 H 0.0 **** 0.06
1351 C 36.94957112682533 8.393879350431817 9.873505347237653 C 0.0 **** -0.24
1352 H 37.27858329319105 7.720705366750451 9.08213171339429 H 0.0 **** 0.06
1353 H 37.25809883935247 7.994479768437145 10.841022915580197 H 0.0 **** 0.06
1354 H 35.86382504002103 8.483086147979392 9.84676550465548 H 0.0 **** 0.06
1355 H 37.39901787128784 9.376348824321354 9.726013392295272 H 0.0 **** 0.06
1356 C 109.78650021198331 75.97377726237228 60.22224549382773 C 0.0 **** -0.24
1357 H 109.40196091744268 74.95707832861552 60.14058592595342 H 0.0 **** 0.06
1358 H 110.8702469584923 75.9616648031234 60.10640618385574 H 0.0 **** 0.06
1359 H 109.53038329298583 76.38126485159385 61.20003608310972 H 0.0 **** 0.06
1360 H 109.3432637232606 76.59298072039725 59.44264884391876 H 0.0 **** 0.06
1361 C 34.647429755252915 18.725093901729764 101.21852178350403 C 0.0 **** -0.24
1362 H 34.50819545753757 18.49627119193721 102.27467584300436 H 0.0 **** 0.06
1363 H 33.70499578299052 18.584363297800962 100.68930295136735 H 0.0 **** 0.06
1364 H 35.403697049036566 18.060345825282695 100.79924463177498 H 0.0 **** 0.06
1365 H 34.97368868607532 19.75972967061199 101.11125378565703 H 0.0 **** 0.06
1366 C 47.45012487425751 27.83886571110243 38.25419676397735 C 0.0 **** -0.24
1367 H 46.55377162504706 28.40007788239997 37.99094175606379 H 0.0 **** 0.06
1368 H 47.664790683992315 27.97551832642418 39.31455952251193 H 0.0 **** 0.06
1369 H 48.29141842521399 28.19994418493352 37.663984194607195 H 0.0 **** 0.06
1370 H 47.289371512942125 26.781228614323716 38.049027297064015 H 0.0 **** 0.06
1371 C 76.0585357602309 18.695261953754027 60.998850155256804 C 0.0 **** -0.24
1372 H 76.02501849104826 17.9804555324975 61.82087072977734 H 0.0 **** 0.06
1373 H 77.0690671036285 19.093925389339375 60.90552074544216 H 0.0 **** 0.06
1374 H 75.36271239927554 19.50924923325593 61.19733924614985 H 0.0 **** 0.06
1375 H 75.77768340159187 18.195209968361922 60.071560840654726 H 0.0 **** 0.06
1376 C 106.89516230980044 5.177339131176655 113.09211172466922 C 0.0 **** -0.24
1377 H 105.9583555577002 4.830233583713309 112.65676555144245 H 0.0 **** 0.06
1378 H 106.98042767825251 6.255853416863239 112.95683697059354 H 0.0 **** 0.06
1379 H 107.73123066332883 4.681578775831934 112.59899121223901 H 0.0 **** 0.06
1380 H 106.90924543840393 4.942302035215242 114.15668663301358 H 0.0 **** 0.06
1381 C 101.54521418729848 124.6775716980268 108.0217368109288 C 0.0 **** -0.24
1382 H 100.51610745759547 124.48677041886606 107.71933043865957 H 0.0 **** 0.06
1383 H 102.02958784749327 123.73463904385628 108.27792757534088 H 0.0 **** 0.06
1384 H 101.55161067700857 125.33613523158884 108.89040454924317 H 0.0 **** 0.06
1385 H 102.0836424912869 125.15243931031767 107.20149831688306 H 0.0 **** 0.06
1386 C 17.107399865134255 54.30417379824581 78.64897652687826 C 0.0 **** -0.24
1387 H 16.644838552027068 53.33486822289129 78.83304217645585 H 0.0 **** 0.06
1388 H 18.190995674140822 54.18974554975762 78.61564809936449 H 0.0 **** 0.06
1389 H 16.838995836283914 54.99258302261046 79.45061142676619 H 0.0 **** 0.06
1390 H 16.754496041341042 54.70035929693732 77.69703357224152 H 0.0 **** 0.06
1391 C 100.96107499571242 11.519067538210777 13.919494155588382 C 0.0 **** -0.24
1392 H 100.32616552937773 11.835906469688325 14.747013062256002 H 0.0 **** 0.06
1393 H 101.55450514560856 12.365211294757472 13.572027737055492 H 0.0 **** 0.06
1394 H 100.33860029713676 11.150669742034012 13.104072925111751 H 0.0 **** 0.06
1395 H 101.62560676130437 10.72328684281922 14.256661935978457 H 0.0 **** 0.06
1396 C 93.81787350821745 115.16783227779158 25.11479622371195 C 0.0 **** -0.24
1397 H 93.1794353111629 114.3882462315755 25.529851290199986 H 0.0 **** 0.06
1398 H 93.57188187226822 115.31750936379504 24.063517785541137 H 0.0 **** 0.06
1399 H 94.86221103070815 114.8682191769997 25.205303828171623 H 0.0 **** 0.06
1400 H 93.65850021866007 116.09758669847767 25.661324691152174 H 0.0 **** 0.06
1401 C 24.512054790468795 100.21345644065853 43.42939321354584 C 0.0 **** -0.24
1402 H 24.29504652285604 99.53433852781538 44.25491173874165 H 0.0 **** 0.06
1403 H 23.593132719712003 100.71284674012095 43.119402686208986 H 0.0 **** 0.06
1404 H 24.920409565668223 99.64831229514193 42.592337140520016 H 0.0 **** 0.06
1405 H 25.239273304549215 100.9579784965652 43.75462952374485 H 0.0 **** 0.06
1406 C 62.35428606481334 93.64306419065348 8.476538203205166 C 0.0 **** -0.24
1407 H 62.634719523998 94.20473215447484 7.585698924214029 H 0.0 **** 0.06
1408 H 61.34232130351964 93.25556000302804 8.357347956447128 H 0.0 **** 0.06
1409 H 62.39194916378247 94.29921985886716 9.34662081425553 H 0.0 **** 0.06
1410 H 63.048118493772535 92.81404698158909 8.617035586079993 H 0.0 **** 0.06
1411 C 99.04654124610995 24.988843426356908 67.78997743492435 C 0.0 **** -0.24
1412 H 99.51570042195311 24.619292909574312 66.87776277120811 H 0.0 **** 0.06
1413 H 99.43690221414457 24.43974243525159 68.64697212497661 H 0.0 **** 0.06
1414 H 97.96723445370598 24.846233900316975 67.72639357942002 H 0.0 **** 0.06
1415 H 99.2657361141503 26.050254864262712 67.90663011225112 H 0.0 **** 0.06
1416 C 65.16878429215257 50.375979082440864 16.049816408672626 C 0.0 **** -0.24
1417 H 64.59109561757208 51.18112473586173 16.502513520929426 H 0.0 **** 0.06
1418 H 64.95460867093533 49.44031220596341 16.566146497013477 H 0.0 **** 0.06
1419 H 66.23260764049411 50.60145168524319 16.132318100580022 H 0.0 **** 0.06
1420 H 64.89818058504426 50.281374044820026 14.998495356928942 H 0.0 **** 0.06
1421 C 32.81916158011009 125.27443860799603 32.69543871488247 C 0.0 **** -0.24
1422 H 32.09745847412023 126.09075210676811 32.661506674037525 H 0.0 **** 0.06
1423 H 32.3428845955699 124.35444805446348 32.35528855532195 H 0.0 **** 0.06
1424 H 33.17095268326116 125.14481735741674 33.718535374579005 H 0.0 **** 0.06
1425 H 33.66348710967995 125.50956869466819 32.04789823174008 H 0.0 **** 0.06
1426 C 15.957572446814332 57.11509111226965 20.720388214492772 C 0.0 **** -0.24
1427 H 15.303644196549175 56.311632208330934 21.059169993562875 H 0.0 **** 0.06
1428 H 15.766938580285395 58.01301784164329 21.31042629450178 H 0.0 **** 0.06
1429 H 15.763133466326817 57.32320636715835 19.66876949429829 H 0.0 **** 0.06
1430 H 16.998298561971062 56.813590669424485 20.844110379007333 H 0.0 **** 0.06
1431 C 122.88184545798705 128.12703325480723 121.49431253408974 C 0.0 **** -0.24
1432 H 122.47915968530688 128.93545186017272 122.1049974170563 H 0.0 **** 0.06
1433 H 123.9596871974897 128.05720933033896 121.6498548928706 H 0.0 **** 0.06
1434 H 122.67853086048828 128.3305951280474 120.44300563157745 H 0.0 **** 0.06
1435 H 122.41136660352336 127.18657969271774 121.78145226157274 H 0.0 **** 0.06
1436 C 5.90961600001873 13.25778961895611 12.546520811229712 C 0.0 **** -0.24
1437 H 5.015096574922836 12.66851249283394 12.344582847030708 H 0.0 **** 0.06
1438 H 5.641608072747545 14.131106956983388 13.141210689491857 H 0.0 **** 0.06
1439 H 6.352203016716771 13.58021334814407 11.604342956651479 H 0.0 **** 0.06
1440 H 6.62779384886602 12.650089276116091 13.096551094916222 H 0.0 **** 0.06
1441 C 78.13899324591853 48.068991940175536 71.50198875201178 C 0.0 **** -0.24
1442 H 79.05737425329575 47.83957887248795 72.04404182922008 H 0.0 **** 0.06
1443 H 77.82009764981406 49.08376878692633 71.74200140585441 H 0.0 **** 0.06
1444 H 77.3601799467623 47.36455949695356 71.79402512867406 H 0.0 **** 0.06
1445 H 78.32022736194648 47.98794583948521 70.43020043487522 H 0.0 **** 0.06
1446 C 13.82391656360656 49.407147452793026 96.87367728684175 C 0.0 **** -0.24
1447 H 14.72713813678547 49.30035532190669 97.47314923365973 H 0.0 **** 0.06
1448 H 13.400614831786157 48.42090600288145 96.6764158736707 H 0.0 **** 0.06
1449 H 14.070012582971486 49.892127745926075 95.92864005116796 H 0.0 **** 0.06
1450 H 13.097310228671944 50.012990132005996 97.41484116053306 H 0.0 **** 0.06
1451 C 125.30569105070511 50.92942254833861 99.07262922803417 C 0.0 **** -0.24
1452 H 124.34580961549662 50.78433589446706 99.56775035758548 H 0.0 **** 0.06
1453 H 125.16490437602339 50.9032377922054 97.9919063399143 H 0.0 **** 0.06
1454 H 125.99116596339181 50.13496887154719 99.36862922754179 H 0.0 **** 0.06
1455 H 125.72120935841693 51.894250490034665 99.36193183867712 H 0.0 **** 0.06
1456 C 63.617424769957935 94.40015514240267 99.69089925063344 C 0.0 **** -0.24
1457 H 63.767318942099394 94.09527274004049 98.65523235276405 H 0.0 **** 0.06
1458 H 64.55094280073676 94.79344709112516 100.09339769908013 H 0.0 **** 0.06
1459 H 63.30196031343047 93.53927991755747 100.28061062858717 H 0.0 **** 0.06
1460 H 62.8485280576636 95.17230723577822 99.7343219121378 H 0.0 **** 0.06
1461 C 113.69900829559568 21.704013685746517 114.5698448722514 C 0.0 **** -0.24
1462 H 114.61015298108283 22.260295571757766 114.34869035674399 H 0.0 **** 0.06
1463 H 112.86219936994154 22.397349591022284 114.65427598910281 H 0.0 **** 0.06
1464 H 113.82199928488653 21.16452400506939 115.50915823427493 H 0.0 **** 0.06
1465 H 113.50368643468853 20.993785757227926 113.76626964781696 H 0.0 **** 0.06
1466 C 92.31073946981445 7.20271135997919 129.69977331391235 C 0.0 **** -0.24
1467 H 92.71057948014229 7.5878752932656255 128.76170232205152 H 0.0 **** 0.06
1468 H 92.73724667891435 7.7614099396763265 130.53329056418505 H 0.0 **** 0.06
1469 H 92.56932280136346 6.147748974789991 129.79791897688446 H 0.0 **** 0.06
1470 H 91.22656839882885 7.312820630881717 129.70461866318604 H 0.0 **** 0.06
1471 C 14.327044142676812 81.07788199306506 35.07463196404285 C 0.0 **** -0.24
1472 H 14.84319125659394 81.99606030753677 35.35545258547347 H 0.0 **** 0.06
1473 H 13.834172953513558 81.2175546881846 34.112966247668396 H 0.0 **** 0.06
1474 H 13.582981515495874 80.83258922152885 35.83281384370531 H 0.0 **** 0.06
1475 H 15.04982332488018 80.26471860997415 34.99858520239445 H 0.0 **** 0.06
1476 C 121.32229603905247 16.81981415288365 79.68279680740082 C 0.0 **** -0.24
1477 H 121.39784033898037 17.44773696158316 80.57027043900607 H 0.0 **** 0.06
1478 H 121.59158157496209 15.794778365829046 79.93871562051572 H 0.0 **** 0.06
1479 H 122.00042844173937 17.193321773999344 78.91442901538431 H 0.0 **** 0.06
1480 H 120.29900177090441 16.84384388783775 79.30646457227792 H 0.0 **** 0.06
1481 C 13.597146946333083 108.19396149700154 104.40845416135377 C 0.0 **** -0.24
1482 H 12.622274496621571 108.1307613669116 104.8922743134579 H 0.0 **** 0.06
1483 H 13.671188102712875 107.42515914029033 103.64006152111779 H 0.0 **** 0.06
1484 H 14.382006709986882 108.04398346313039 105.15042064396434 H 0.0 **** 0.06
1485 H 13.712415280462437 109.17695171048285 103.9517574102687 H 0.0 **** 0.06
1486 C 42.42305939399691 37.6556651849842 3.310352095760436 C 0.0 **** -0.24
1487 H 41.39366663308658 37.78385960041322 2.9723871146849774 H 0.0 **** 0.06
1488 H 42.569891689654696 38.20231286500592 4.241502471691376 H 0.0 **** 0.06
1489 H 43.104398452555444 38.0398254780103 2.551385422520241 H 0.0 **** 0.06
1490 H 42.621004622885465 36.59653566454725 3.4750148180037854 H 0.0 **** 0.06
1491 C 129.58124027051886 28.501410692805536 49.72551683181618 C 0.0 **** -0.24
1492 H 128.63122211200303 28.932970581898182 50.03905945009882 H 0.0 **** 0.06
1493 H 130.3582883534668 28.77957545944942 50.43792060944662 H 0.0 **** 0.06
1494 H 129.842111869251 28.87693926740213 48.736096413516876 H 0.0 **** 0.06
1495 H 129.492578150453 27.415871409886513 49.690148342072604 H 0.0 **** 0.06
1496 C 72.1563267185923 15.078755588790898 98.9305098205433 C 0.0 **** -0.24
1497 H 71.37569407545608 15.27222901072048 98.1943412134218 H 0.0 **** 0.06
1498 H 72.16088313717019 14.017810830175506 99.18422429348418 H 0.0 **** 0.06
1499 H 71.96325648781378 15.666381541529006 99.82739277415358 H 0.0 **** 0.06
1500 H 73.12468048263558 15.356993592756623 98.51441117902694 H 0.0 **** 0.06
1501 C 23.810668369725448 113.60688620790017 122.10398729730929 C 0.0 **** -0.24
1502 H 23.917813403640736 112.52397460517469 122.03997259805868 H 0.0 **** 0.06
1503 H 24.611656122192954 114.01535278936984 122.72104580553639 H 0.0 **** 0.06
1504 H 22.846550640027118 113.85060400459605 122.55071107082358 H 0.0 **** 0.06
1505 H 23.867406546783712 114.03701028608333 121.10318580704941 H 0.0 **** 0.06
1506 C 13.796051846978628 0.5925634107389328 54.76799694545046 C 0.0 **** -0.24
1507 H 14.714207919463366 0.02462350661607715 54.91624042822157 H 0.0 **** 0.06
1508 H 13.615359025389491 1.2245389872953076 55.63709556116588 H 0.0 **** 0.06
1509 H 12.959946325129355 -0.09524537019724022 54.638636399797434 H 0.0 **** 0.06
1510 H 13.894959404587343 1.2153477188152628 53.87861822957875 H 0.0 **** 0.06
1511 C 39.75199180758864 54.86784589300396 5.591343613975681 C 0.0 **** -0.24
1512 H 39.68746937975533 54.070562327891736 6.33161871662114 H 0.0 **** 0.06
1513 H 39.52682819240317 54.464910262502556 4.603505197407447 H 0.0 **** 0.06
1514 H 40.75887452069628 55.2855278427769 5.594076812903481 H 0.0 **** 0.06
1515 H 39.03331443639706 55.65033131849401 5.837070950650819 H 0.0 **** 0.06
1516 C 46.17731950018643 22.71272501713463 116.10095550964618 C 0.0 **** -0.24
1517 H 45.095615798667495 22.741897820221595 116.22710402971411 H 0.0 **** 0.06
1518 H 46.61592185161476 22.07955334772322 116.87290314025125 H 0.0 **** 0.06
1519 H 46.580219257245716 23.722097107545068 116.1866308315373 H 0.0 **** 0.06
1520 H 46.41781150257293 22.307838682111452 115.11800784373189 H 0.0 **** 0.06
1521 C 66.7452296288422 51.008134668067584 50.76350367053547 C 0.0 **** -0.24
1522 H 67.53430500179317 51.30969384013147 51.45138848377178 H 0.0 **** 0.06
1523 H 66.6707188292115 49.92026089883021 50.75084140519405 H 0.0 **** 0.06
1524 H 66.97895154931601 51.36787113547595 49.76182549467191 H 0.0 **** 0.06
1525 H 65.79581732977596 51.43397046796085 51.09038546836334 H 0.0 **** 0.06
1526 C 60.38372774288979 34.289958548045426 54.808187157849716 C 0.0 **** -0.24
1527 H 60.70653985549504 35.31664608003121 54.98087624857229 H 0.0 **** 0.06
1528 H 60.07395464476778 34.17646345826033 53.76831453203994 H 0.0 **** 0.06
1529 H 59.544981637116166 34.05703376191787 55.46489450109948 H 0.0 **** 0.06
1530 H 61.20974252755926 33.6094777501677 55.01729952885805 H 0.0 **** 0.06
1531 C 64.83208156686271 48.48380300209328 10.417379260410513 C 0.0 **** -0.24
1532 H 64.64259666590806 49.10287378032686 11.293244097146612 H 0.0 **** 0.06
1533 H 65.64317941150625 48.9191173982405 9.833943647615655 H 0.0 **** 0.06
1534 H 63.93192677053804 48.43237254472794 9.805908370969874 H 0.0 **** 0.06
1535 H 65.11245878962364 47.47957413571254 10.736511698394565 H 0.0 **** 0.06
1536 C 33.410870324322154 37.93747612532198 6.773068505009938 C 0.0 **** -0.24
1537 H 32.749879000867615 37.235998494127905 7.28216090906648 H 0.0 **** 0.06
1538 H 34.43753268597423 37.576852424455424 6.832443446389451 H 0.0 **** 0.06
1539 H 33.33996774843204 38.91495318632583 7.25078172749776 H 0.0 **** 0.06
1540 H 33.11419970133698 38.0211173554929 5.72753268131336 H 0.0 **** 0.06
1541 C 39.46731568360613 82.59974831323153 104.35681448759314 C 0.0 **** -0.24
1542 H 39.40862539593166 82.19556683999136 103.34608095568134 H 0.0 **** 0.06
1543 H 39.71516837739057 83.66088252225163 104.30958324959457 H 0.0 **** 0.06
1544 H 40.239861505843336 82.07175547391991 104.91528825593485 H 0.0 **** 0.06
1545 H 38.50677197194653 82.47189396634097 104.85511306104573 H 0.0 **** 0.06
1546 C 14.131879944530112 123.45637274060478 37.12857662471683 C 0.0 **** -0.24
1547 H 13.887828514349081 122.90796831190514 38.03782240668026 H 0.0 **** 0.06
1548 H 13.212445078444716 123.78481169545171 36.643661307480215 H 0.0 **** 0.06
1549 H 14.687554791335003 122.80778619257208 36.451048436884804 H 0.0 **** 0.06
1550 H 14.740643916643194 124.32507883134977 37.37975711131355 H 0.0 **** 0.06
1551 C 127.3743485727388 129.32648391911664 41.54206337872925 C 0.0 **** -0.24
1552 H 127.95385357638494 129.3904090623701 40.62114101972583 H 0.0 **** 0.06
1553 H 126.3540329530999 129.0217180270401 41.3089405216137 H 0.0 **** 0.06
1554 H 127.36025820820925 130.30215350617993 42.02935576633506 H 0.0 **** 0.06
1555 H 127.83110261848395 128.59437727755653 42.208420720255916 H 0.0 **** 0.06
1556 C 30.793941891014754 92.6137761128655 66.07599499380126 C 0.0 **** -0.24
1557 H 31.285394480178525 92.67400571977612 65.10547649405403 H 0.0 **** 0.06
1558 H 29.864999253847373 93.18471622116716 66.04798556433214 H 0.0 **** 0.06
1559 H 31.450626749867325 93.02623500429713 66.84112704445832 H 0.0 **** 0.06
1560 H 30.574001677858462 91.5720169997231 66.3084163729025 H 0.0 **** 0.06
1561 C 12.724981142485376 28.645703713545913 63.49329411113533 C 0.0 **** -0.24
1562 H 12.804550776584435 29.19390714371434 64.43274246837944 H 0.0 **** 0.06
1563 H 12.518350437578874 27.596092005223852 63.70215405859943 H 0.0 **** 0.06
1564 H 13.66241883250784 28.73032917221491 62.94371557053631 H 0.0 **** 0.06
1565 H 11.914732155468073 29.064339795855062 62.89616105069953 H 0.0 **** 0.06
1566 C 10.028040917394282 21.788867127032006 44.73053585457795 C 0.0 **** -0.24
1567 H 10.326594246724277 22.190758431403452 43.7623748389523 H 0.0 **** 0.06
1568 H 9.173573103214498 22.350873704602463 45.108633562769214 H 0.0 **** 0.06
1569 H 10.8584304601095 21.87592589238122 45.43123939308717 H 0.0 **** 0.06
1570 H 9.754387904480051 20.74060708386341 44.61966537169138 H 0.0 **** 0.06
1571 C 126.20920921405676 105.16299102317402 128.95551731046456 C 0.0 **** -0.24
1572 H 126.60300356757065 104.35659916027475 128.33844800388243 H 0.0 **** 0.06
1573 H 125.12202320634904 105.08975106061581 128.998772646082 H 0.0 **** 0.06
1574 H 126.4917842620232 106.12273705641229 128.52417718621956 H 0.0 **** 0.06
1575 H 126.61856047681778 105.08288012582483 129.96328927906887 H 0.0 **** 0.06
1576 C 59.37296925336115 9.556816305995198 28.10874317527356 C 0.0 **** -0.24
1577 H 58.451077644380135 10.10618356830426 27.92124951792016 H 0.0 **** 0.06
1578 H 60.038330898607356 9.659495782869215 27.251218654685886 H 0.0 **** 0.06
1579 H 59.142790116599215 8.502681212050987 28.266236946197523 H 0.0 **** 0.06
1580 H 59.8599041347141 9.958505964453877 28.997605556939618 H 0.0 **** 0.06
1581 C 116.8229752921048 111.06077336068363 58.608500674304196 C 0.0 **** -0.24
1582 H 116.89145965778313 112.05841437426746 59.04133750944186 H 0.0 **** 0.06
1583 H 115.81785543630245 110.6671316668779 58.758543139359574 H 0.0 **** 0.06
1584 H 117.54686803220542 110.4044033592024 59.09323801277753 H 0.0 **** 0.06
1585 H 117.03787528163386 111.1125703405774 57.54189275742638 H 0.0 **** 0.06
1586 C 28.55224276107805 114.99760207713037 116.07062651923223 C 0.0 **** -0.24
1587 H 27.755750468662512 115.66510515810775 116.40191072436464 H 0.0 **** 0.06
1588 H 29.004065758449883 115.39573119422654 115.16199586618468 H 0.0 **** 0.06
1589 H 28.138524254615078 114.00976611421142 115.87077029197555 H 0.0 **** 0.06
1590 H 29.310227108042596 114.92340989345557 116.85063083897413 H 0.0 **** 0.06
1591 C 116.07543326495903 2.878545719912097 4.139644068032226 C 0.0 **** -0.24
1592 H 115.74626558132138 1.8617149733839824 3.9262047918268195 H 0.0 **** 0.06
1593 H 115.23743491128332 3.564582580172214 4.01691001895216 H 0.0 **** 0.06
1594 H 116.87455611841958 3.153497611283399 3.4517068936855253 H 0.0 **** 0.06
1595 H 116.44391021072357 2.933391454326113 5.1646597900420375 H 0.0 **** 0.06
1596 C 126.89322737563282 63.46664905217146 82.85025973114692 C 0.0 **** -0.24
1597 H 126.36893194843813 64.10824297353112 82.14245892468631 H 0.0 **** 0.06
1598 H 126.17868607430972 63.04470248504495 83.55766014419025 H 0.0 **** 0.06
1599 H 127.63599378073744 64.05464850554671 83.39094566045145 H 0.0 **** 0.06
1600 H 127.39085932378464 62.66040819515537 82.31073898990805 H 0.0 **** 0.06
1601 C 104.46873446610086 102.61596390060905 32.12205640790572 C 0.0 **** -0.24
1602 H 105.2892799492718 102.34062475686792 31.45924048019262 H 0.0 **** 0.06
1603 H 104.38437418369722 103.70169105527499 32.16356944615143 H 0.0 **** 0.06
1604 H 104.66306934963433 102.22704043386229 33.12120500357835 H 0.0 **** 0.06
1605 H 103.53810413055469 102.19259982137783 31.74266799403523 H 0.0 **** 0.06
1606 C 42.27253866112961 66.87909887616692 22.740745024280166 C 0.0 **** -0.24
1607 H 42.84444718403985 66.28345405209816 23.451617941783226 H 0.0 **** 0.06
1608 H 41.234372016073294 66.5440585060555 22.739501747800567 H 0.0 **** 0.06
1609 H 42.69460379471878 66.7583655214303 21.743208091361275 H 0.0 **** 0.06
1610 H 42.31542868847997 67.92913197943773 23.02927123155972 H 0.0 **** 0.06
1611 C 114.4045274492597 117.86381027746033 36.95687156477612 C 0.0 **** -0.24
1612 H 115.36912596778235 117.95039629162495 37.45593866352095 H 0.0 **** 0.06
1613 H 113.76999377007759 117.17256179910837 37.51175807120964 H 0.0 **** 0.06
1614 H 114.55324804779833 117.4889605739196 35.943562911432025 H 0.0 **** 0.06
1615 H 113.92730270972187 118.8431736582159 36.91549023601925 H 0.0 **** 0.06
1616 C 103.24261266347031 21.747645565403076 66.75359963030229 C 0.0 **** -0.24
1617 H 103.47417174191605 21.165100240678413 67.64571444867664 H 0.0 **** 0.06
1618 H 103.55232033094086 21.192820778938824 65.86798905896993 H 0.0 **** 0.06
1619 H 103.77492118443911 22.69806169540732 66.79198307419918 H 0.0 **** 0.06
1620 H 102.1692333806854 21.933515344729898 66.71038116683766 H 0.0 **** 0.06
1621 C 105.78283229867591 32.890957272644016 114.83087028674501 C 0.0 **** -0.24
1622 H 106.0180532163462 32.815168750584974 113.76947749287027 H 0.0 **** 0.06
1623 H 105.37809779606164 33.88006959531083 115.04445457145229 H 0.0 **** 0.06
1624 H 106.69001474660762 32.73520424436066 115.41549710938395 H 0.0 **** 0.06
1625 H 105.04620674898213 32.13168123574269 115.09399037871074 H 0.0 **** 0.06
1626 C 30.75453545872538 22.318796584039177 55.127090145428355 C 0.0 **** -0.24
1627 H 29.77655913913207 22.594538436826255 55.52039176723457 H 0.0 **** 0.06
1628 H 30.734837264499284 22.36821603059056 54.03875879701141 H 0.0 **** 0.06
1629 H 30.997989816652897 21.30342364796965 55.44059336747952 H 0.0 **** 0.06
1630 H 31.507420084147682 23.008195203353146 55.5093619880937 H 0.0 **** 0.06
1631 C 78.27594777369504 58.613379489699355 70.0202419519441 C 0.0 **** -0.24
1632 H 78.08582515498037 59.00513221074095 71.02014931736207 H 0.0 **** 0.06
1633 H 77.32924762031834 58.36162024076623 69.54312087384928 H 0.0 **** 0.06
1634 H 78.897566924085 57.72127042179147 70.09206447424803 H 0.0 **** 0.06
1635 H 78.79273253055675 59.369185176974156 69.42733146488497 H 0.0 **** 0.06
1636 C 78.5069884581674 119.98110235933144 79.24002843311182 C 0.0 **** -0.24
1637 H 78.64890109569123 119.3648659543258 78.35323541069047 H 0.0 **** 0.06
1638 H 77.616728328195 120.59774990026597 79.11534806000455 H 0.0 **** 0.06
1639 H 79.37743811897312 120.62133292616441 79.38043724205028 H 0.0 **** 0.06
1640 H 78.38404829995889 119.33794034939349 80.11248812840337 H 0.0 **** 0.06
1641 C 69.53618412478033 30.92069317438515 100.59580979709101 C 0.0 **** -0.24
1642 H 70.49431716562711 30.680955526808845 100.13322630960191 H 0.0 **** 0.06
1643 H 69.19785919938315 31.896334122832258 100.24544925485917 H 0.0 **** 0.06
1644 H 69.65163248712346 30.94300462857737 101.67931398618761 H 0.0 **** 0.06
1645 H 68.80177879128856 30.162079905401555 100.32379467796241 H 0.0 **** 0.06
1646 C 39.22817613563856 123.90327412838685 57.23079305123785 C 0.0 **** -0.24
1647 H 38.59974047552973 123.9241233824386 58.12006595163322 H 0.0 **** 0.06
1648 H 39.20814156478994 124.88112326853398 56.74875654626749 H 0.0 **** 0.06
1649 H 38.85407760382495 123.14884413345446 56.5381263308049 H 0.0 **** 0.06
1650 H 40.25211498599171 123.65891943068219 57.515883487299774 H 0.0 **** 0.06
1651 C 112.97235387771342 82.43909841968073 110.36935198715193 C 0.0 **** -0.24
1652 H 112.25738638885451 81.90020487886383 110.992077273447 H 0.0 **** 0.06
1653 H 113.26353905537745 81.812969961882 109.52569456662752 H 0.0 **** 0.06
1654 H 113.85527958801104 82.68539607699853 110.96060507910812 H 0.0 **** 0.06
1655 H 112.51397882946674 83.35646501657556 110.00159358101283 H 0.0 **** 0.06
1656 C 77.73823195074621 128.77570080906963 97.09107517697652 C 0.0 **** -0.24
1657 H 78.21429658734957 128.63063217594294 96.12043099917406 H 0.0 **** 0.06
1658 H 77.12830338504838 127.9041426047695 97.32972541824574 H 0.0 **** 0.06
1659 H 77.10645599412896 129.66284125171262 97.05673274587758 H 0.0 **** 0.06
1660 H 78.50375278528375 128.90389999901902 97.85558693224516 H 0.0 **** 0.06
1661 C 55.56804613689344 57.30799096066971 52.107947620556615 C 0.0 **** -0.24
1662 H 55.88130411938077 57.3584035565255 53.15089224669525 H 0.0 **** 0.06
1663 H 54.51917754495379 57.01723507594386 52.05742918411265 H 0.0 **** 0.06
1664 H 56.17570833891874 56.57171525591565 51.58211761905122 H 0.0 **** 0.06
1665 H 55.69860741728053 58.28510689009721 51.64273939967387 H 0.0 **** 0.06
1666 C 48.62110617703809 15.614353025275921 126.34181788552871 C 0.0 **** -0.24
1667 H 48.82049125406252 15.315291122023822 127.37144845398333 H 0.0 **** 0.06
1668 H 47.90792559167505 16.438899763366546 126.33513776800572 H 0.0 **** 0.06
1669 H 48.205967099357395 14.768970958968069 125.79217688038864 H 0.0 **** 0.06
1670 H 49.55045052382138 15.933045282962937 125.87034702997065 H 0.0 **** 0.06
1671 C 34.521453691701005 84.44307899288383 1.0245775066916565 C 0.0 **** -0.24
1672 H 34.654931832547966 83.87175560508713 0.10533395598696416 H 0.0 **** 0.06
1673 H 33.56772550593673 84.97010920479804 0.9897321432423212 H 0.0 **** 0.06
1674 H 35.33202469330433 85.16436130656523 1.1250309968696968 H 0.0 **** 0.06
1675 H 34.530663649439994 83.76447682759905 1.8777907116477763 H 0.0 **** 0.06
1676 C 100.31518747946333 21.78859701579657 128.75750182899029 C 0.0 **** -0.24
1677 H 100.20962149299638 22.024684429431375 129.8169706087947 H 0.0 **** 0.06
1678 H 99.55926995314363 21.05663792618938 128.47141599299567 H 0.0 **** 0.06
1679 H 101.3074474128162 21.37671602616436 128.57459004370898 H 0.0 **** 0.06
1680 H 100.18441322643586 22.695586657788226 128.16858564895543 H 0.0 **** 0.06
1681 C 37.93968024312068 3.5009161062785665 10.75827538745358 C 0.0 **** -0.24
1682 H 38.447359984469216 4.315978155109718 10.241885378665955 H 0.0 **** 0.06
1683 H 38.460906114555385 3.282075473179134 11.690882971742695 H 0.0 **** 0.06
1684 H 37.93877386157045 2.6138017214018134 10.125146884924135 H 0.0 **** 0.06
1685 H 36.91278835700639 3.7941170831010425 10.976389366825543 H 0.0 **** 0.06
1686 C 0.5673544965978863 100.77137764869028 41.2041161737393 C 0.0 **** -0.24
1687 H -0.11101594607760035 101.47372895171202 40.71887529922857 H 0.0 **** 0.06
1688 H 0.5221148801155664 99.81015961213254 40.69176985104758 H 0.0 **** 0.06
1689 H 0.2717612178745128 100.64294747237417 42.24587662162316 H 0.0 **** 0.06
1690 H 1.5843062002730335 101.15960138098009 41.159675566992775 H 0.0 **** 0.06
1691 C 51.189498322546456 54.064712823409536 50.772024734116656 C 0.0 **** -0.24
1692 H 50.627660278289596 54.50338190637984 51.596343779693484 H 0.0 **** 0.06
1693 H 51.72772178160304 53.18629865578674 51.12726760008172 H 0.0 **** 0.06
1694 H 51.900037195337276 54.79610403502181 50.38621402142286 H 0.0 **** 0.06
1695 H 50.50146425435052 53.77358876036749 49.97756929939038 H 0.0 **** 0.06
1696 C 62.06566020426865 50.5099728452454 68.42958659785288 C 0.0 **** -0.24
1697 H 62.604718982233294 49.68724456024802 68.9004627317648 H 0.0 **** 0.06
1698 H 62.46128101394993 51.45804850556061 68.79311672615776 H 0.0 **** 0.06
1699 H 61.00615397779663 50.4384591733463 68.67562079452551 H 0.0 **** 0.06
1700 H 62.19210281691875 50.454830509172666 67.3478513629702 H 0.0 **** 0.06
1701 C 17.68890805199473 112.56007447062926 93.50868767381165 C 0.0 **** -0.24
1702 H 16.93427240234837 113.22273596706178 93.93057766215078 H 0.0 **** 0.06
1703 H 17.381543871197124 112.2477715487669 92.5101974812805 H 0.0 **** 0.06
1704 H 17.800144455597575 111.68295180120269 94.14693042477516 H 0.0 **** 0.06
1705 H 18.641255000026376 113.08708178573777 93.44770351324559 H 0.0 **** 0.06
1706 C 100.07305119017659 35.62599311298786 114.60892724307588 C 0.0 **** -0.24
1707 H 99.83282544372248 36.39935536694108 113.878517802215 H 0.0 **** 0.06
1708 H 100.23875450718153 36.085532785880446 115.5830268970971 H 0.0 **** 0.06
1709 H 100.97446207681455 35.099566659791776 114.2972126277288 H 0.0 **** 0.06
1710 H 99.24496628015763 34.920748922011086 114.67551891243677 H 0.0 **** 0.06
1711 C 22.06230612137496 32.043280308097366 77.75787575433245 C 0.0 **** -0.24
1712 H 22.87588474517898 31.395137646271507 77.43088274462798 H 0.0 **** 0.06
1713 H 22.46073700641415 33.02684013011313 78.00851378774851 H 0.0 **** 0.06
1714 H 21.583650004314237 31.610276632098675 78.63684541749012 H 0.0 **** 0.06
1715 H 21.33109219562808 32.14099152858793 76.95589935702935 H 0.0 **** 0.06
1716 C 120.38618602961196 86.94895881770124 81.58924730596175 C 0.0 **** -0.24
1717 H 119.81733886815186 87.86136856454148 81.40975401562832 H 0.0 **** 0.06
1718 H 120.18383609677991 86.58642505112492 82.59775874319001 H 0.0 **** 0.06
1719 H 121.45057052862344 87.15902562324719 81.48516545152756 H 0.0 **** 0.06
1720 H 120.09299862489277 86.18901603189126 80.8643110135011 H 0.0 **** 0.06
1721 C 66.45589971604159 45.68480848957887 42.248737220348175 C 0.0 **** -0.24
1722 H 66.81801127996457 45.429915719363635 43.245526289846566 H 0.0 **** 0.06
1723 H 67.01423896450305 46.54105951489933 41.868075913498046 H 0.0 **** 0.06
1724 H 65.39639851325674 45.93509438872846 42.30020201064778 H 0.0 **** 0.06
1725 H 66.59698733714507 44.83388874295309 41.58322443377955 H 0.0 **** 0.06
1726 C 93.45426475883622 39.17786668409747 126.2920465291525 C 0.0 **** -0.24
1727 H 93.61440771553576 38.72201114465017 125.31454845867732 H 0.0 **** 0.06
1728 H 94.41016783242301 39.51307145676628 126.6961908339227 H 0.0 **** 0.06
1729 H 93.01088046068249 38.44510444440317 126.96581971071906 H 0.0 **** 0.06
1730 H 92.78410893310439 40.03060265566435 126.18912455775931 H 0.0 **** 0.06
1731 C 50.44455061266888 44.840482043297044 35.654101546965364 C 0.0 **** -0.24
1732 H 50.41682198182514 44.154411012375135 36.50040770344586 H 0.0 **** 0.06
1733 H 51.14874349783928 44.46820883734611 34.90881729774193 H 0.0 **** 0.06
1734 H 50.76381207941493 45.82519020148922 35.99591793957924 H 0.0 **** 0.06
1735 H 49.45150751313122 44.91229156748388 35.212474821182525 H 0.0 **** 0.06
1736 C 25.42828097237261 98.71127048190559 27.657851765617295 C 0.0 **** -0.24
1737 H 24.936350397424512 98.20375843038157 26.828551306232043 H 0.0 **** 0.06
1738 H 25.5754506441611 98.00825486642421 28.478189893013507 H 0.0 **** 0.06
1739 H 24.804911818290982 99.53902550195372 27.996844430260694 H 0.0 **** 0.06
1740 H 26.39429416188115 99.094224483976 27.328518757185407 H 0.0 **** 0.06
1741 C 39.0874652040373 6.383709480609923 86.80916420846162 C 0.0 **** -0.24
1742 H 39.93183529515926 5.995456344094237 86.24072243526052 H 0.0 **** 0.06
1743 H 38.86477961037289 5.7086243127128 87.63624986586144 H 0.0 **** 0.06
1744 H 38.216944218846635 6.461817138013089 86.15836174885855 H 0.0 **** 0.06
1745 H 39.336914086053895 7.369631986451566 87.2017053548366 H 0.0 **** 0.06
1746 C 123.18982820412099 54.351643903822804 31.758179465921025 C 0.0 **** -0.24
1747 H 123.73118918814367 54.55139915249373 30.834320978405053 H 0.0 **** 0.06
1748 H 122.53536743182737 55.19385691753308 31.985084432955276 H 0.0 **** 0.06
1749 H 123.90091991105972 54.21333887139531 32.57292899775142 H 0.0 **** 0.06
1750 H 122.59083255626086 53.447776303925195 31.641358581504072 H 0.0 **** 0.06
1751 C 97.8215907640346 83.0449457415695 111.56442972908843 C 0.0 **** -0.24
1752 H 97.96623262809084 83.6521989003358 112.45772182945711 H 0.0 **** 0.06
1753 H 96.75850619231566 82.84298686956726 111.43059281795308 H 0.0 **** 0.06
1754 H 98.35900240040569 82.10239930638994 111.67534635941414 H 0.0 **** 0.06
1755 H 98.2034839004025 83.58073910689347 110.6951204628183 H 0.0 **** 0.06
1756 C 15.316215702636939 52.04299536832579 92.53119128396938 C 0.0 **** -0.24
1757 H 14.611534444352685 52.849062103524915 92.32568401534604 H 0.0 **** 0.06
1758 H 16.108658108299323 52.05361715571419 91.78232098495575 H 0.0 **** 0.06
1759 H 14.794641340517956 51.08642660713437 92.49569660958663 H 0.0 **** 0.06
1760 H 15.749575717319175 52.18482088569547 93.52116708286351 H 0.0 **** 0.06
1761 C 113.86359870925098 93.15330243819093 18.267666258401846 C 0.0 **** -0.24
1762 H 113.59435490950283 92.50783835034836 17.43252598765764 H 0.0 **** 0.06
1763 H 113.6107824019969 94.1856514725578 18.026413605967377 H 0.0 **** 0.06
1764 H 114.93403001417094 93.07564319212388 18.456158413067328 H 0.0 **** 0.06
1765 H 113.31487579335827 92.84335036182799 19.157652441083883 H 0.0 **** 0.06
1766 C 91.70779125979989 121.49421917938332 106.38060669045055 C 0.0 **** -0.24
1767 H 92.74012531610823 121.163866939108 106.49607212871726 H 0.0 **** 0.06
1768 H 91.45766608422824 122.19223786730595 107.17982931432707 H 0.0 **** 0.06
1769 H 91.04360604918301 120.63108263051134 106.42997065059782 H 0.0 **** 0.06
1770 H 91.59016177832578 121.9883718073961 105.41622452948249 H 0.0 **** 0.06
1771 C 127.41854266686437 55.28427761339765 104.31188823748272 C 0.0 **** -0.24
1772 H 128.22689214540966 54.582682750677066 104.10215668178293 H 0.0 **** 0.06
1773 H 126.45967255666557 54.78349455676897 104.17551759791415 H 0.0 **** 0.06
1774 H 127.4870138839261 56.1319644624528 103.6301506311939 H 0.0 **** 0.06
1775 H 127.50207070601668 55.63703133553099 105.33948169130271 H 0.0 **** 0.06
1776 C 103.36854822140396 17.268147318426145 24.8012385503298 C 0.0 **** -0.24
1777 H 102.4371126244748 17.141831139955798 25.352757724107732 H 0.0 **** 0.06
1778 H 103.15687934412307 17.296055711868632 23.73189439044546 H 0.0 **** 0.06
1779 H 104.03513048705865 16.433928668236405 25.018226461476218 H 0.0 **** 0.06
1780 H 103.84474286267313 18.20200599019836 25.101463739152848 H 0.0 **** 0.06
1781 C 44.41865038334751 19.275586789790765 96.62509651398567 C 0.0 **** -0.24
1782 H 44.16393000426652 18.21746985416189 96.5648756731265 H 0.0 **** 0.06
1783 H 44.06085167186518 19.787158284399737 95.72996338473327 H 0.0 **** 0.06
1784 H 45.50049327113268 19.3850680024689 96.69749314649296 H 0.0 **** 0.06
1785 H 43.94873483720693 19.712560722368465 97.50589933084525 H 0.0 **** 0.06
1786 C 73.08818971686921 64.76383135953861 41.200321276676476 C 0.0 **** -0.24
1787 H 73.62385171690694 65.64631094913499 40.847742814000725 H 0.0 **** 0.06
1788 H 73.2498448698479 64.64512225140062 42.27134330474655 H 0.0 **** 0.06
1789 H 73.45829119343554 63.88241825915419 40.676583444656075 H 0.0 **** 0.06
1790 H 72.02275776265495 64.88345747529638 41.003585880106556 H 0.0 **** 0.06
1791 C 79.80668985250485 55.48815273488535 80.66792211023403 C 0.0 **** -0.24
1792 H 79.3286848952761 56.05221402268178 79.86612308659952 H 0.0 **** 0.06
1793 H 79.04464016857334 55.11426471703875 81.35216076165953 H 0.0 **** 0.06
1794 H 80.49407508139198 56.13876270111153 81.20795697110238 H 0.0 **** 0.06
1795 H 80.35759043000543 54.64932234302721 80.24279085551316 H 0.0 **** 0.06
1796 C 59.257127773596764 48.238106583153495 79.2187020811771 C 0.0 **** -0.24
1797 H 59.39574540989908 47.43164570961511 79.93839538338027 H 0.0 **** 0.06
1798 H 59.35475558772049 49.198292034197024 79.72554840376215 H 0.0 **** 0.06
1799 H 58.264099917174704 48.160581234270936 78.77418205195555 H 0.0 **** 0.06
1800 H 60.01193428552506 48.1617884401464 78.4369687124419 H 0.0 **** 0.06
1801 C 75.27280318071419 45.401181538623916 38.30387657578669 C 0.0 **** -0.24
1802 H 74.55780068919852 44.93933248900447 37.62344852720253 H 0.0 **** 0.06
1803 H 76.14960666551987 45.726395739138354 37.74245433337083 H 0.0 **** 0.06
1804 H 75.57445979458086 44.67662580281342 39.059826114750024 H 0.0 **** 0.06
1805 H 74.81090033524971 46.26146366614569 38.78845154466282 H 0.0 **** 0.06
1806 C 79.21398726035927 85.22387774648394 103.58886493356712 C 0.0 **** -0.24
1807 H 79.97338248717446 85.088023814113 102.81921953858583 H 0.0 **** 0.06
1808 H 79.30896668265329 86.22160881214364 104.01970273587702 H 0.0 **** 0.06
1809 H 79.34994012401708 84.47643096799848 104.37059993418418 H 0.0 **** 0.06
1810 H 78.22503612600815 85.11145844843213 103.14618565641806 H 0.0 **** 0.06
1811 C 114.86814533713367 3.9767609064585336 115.89772413905025 C 0.0 **** -0.24
1812 H 114.68414500051428 3.085759688019465 116.4992864876244 H 0.0 **** 0.06
1813 H 115.56582818730558 3.734176949694728 115.09541858548177 H 0.0 **** 0.06
1814 H 115.29440750095516 4.758289654717 116.52702762367595 H 0.0 **** 0.06
1815 H 113.92866431654197 4.3259588208745114 115.46994771658385 H 0.0 **** 0.06
1816 C 10.747618574444004 110.71080885498908 80.9668452735983 C 0.0 **** -0.24
1817 H 10.06135493842595 109.881040004485 81.13230607339649 H 0.0 **** 0.06
1818 H 10.601562413562135 111.46273851838569 81.74281556377169 H 0.0 **** 0.06
1819 H 10.554258557478136 111.15373307072217 79.98997092206953 H 0.0 **** 0.06
1820 H 11.774157365173778 110.34566011278342 81.00341023530441 H 0.0 **** 0.06
1821 C 83.27577034748906 120.24056512869979 69.56589945036941 C 0.0 **** -0.24
1822 H 82.41536637150084 119.57806234286554 69.46710382900412 H 0.0 **** 0.06
1823 H 83.98472560359346 119.81210894361558 70.27459136555073 H 0.0 **** 0.06
1824 H 82.9432496517402 121.21424852110376 69.92706168801054 H 0.0 **** 0.06
1825 H 83.75666709437778 120.35765361605765 68.59556497911734 H 0.0 **** 0.06
1826 C 119.35908684047776 114.05459764839057 55.79683670638468 C 0.0 **** -0.24
1827 H 119.19168078035416 114.44454889904134 56.80170426000569 H 0.0 **** 0.06
1828 H 119.23954880025406 112.97160483474593 55.80336679047082 H 0.0 **** 0.06
1829 H 120.36889552527437 114.30791595740541 55.47375353868 H 0.0 **** 0.06
1830 H 118.63642126158798 114.49728971883073 55.11079100452736 H 0.0 **** 0.06
1831 C 0.2502839974380606 92.43555296272646 105.01754962454376 C 0.0 **** -0.24
1832 H 0.6570120692031765 91.49191351945615 105.37810783392788 H 0.0 **** 0.06
1833 H 0.8815179316732724 93.25715361662265 105.35946143083595 H 0.0 **** 0.06
1834 H -0.7592757680300224 92.56815288428268 105.40537788571055 H 0.0 **** 0.06
1835 H 0.22257370634960694 92.42764840233448 103.92846144514863 H 0.0 **** 0.06
1836 C 74.51490524518954 18.00060491408555 96.54278968460711 C 0.0 **** -0.24
1837 H 74.63490233553486 18.516221354063042 95.59047838998914 H 0.0 **** 0.06
1838 H 74.05104049564784 18.673506811077118 97.26460409988313 H 0.0 **** 0.06
1839 H 75.49232152475409 17.6881832434684 96.91240254634741 H 0.0 **** 0.06
1840 H 73.88205228374213 17.123794694929153 96.40359029351525 H 0.0 **** 0.06
1841 C 3.723782956105538 84.81448500533223 17.45652555048244 C 0.0 **** -0.24
1842 H 2.9532811230810694 84.08331900691834 17.70157797407495 H 0.0 **** 0.06
1843 H 4.369275362137614 84.96657107658119 18.321165250365425 H 0.0 **** 0.06
1844 H 3.254150221740929 85.75973551294626 17.181931089469742 H 0.0 **** 0.06
1845 H 4.317933783993681 84.44802571175025 16.61816049584965 H 0.0 **** 0.06
1846 C 86.3714463760341 111.42166395086383 1.4030709577843226 C 0.0 **** -0.24
1847 H 86.29997041654542 112.40260416747176 1.873912758192649 H 0.0 **** 0.06
1848 H 87.38032390878229 111.27905363431898 1.0161227960364592 H 0.0 **** 0.06
1849 H 85.6550730387325 111.3594187174185 0.5836667451004836 H 0.0 **** 0.06
1850 H 86.15015162353052 110.64901711448162 2.1389146437915265 H 0.0 **** 0.06
1851 C 1.4602129638285533 25.47430618850197 109.23416010564412 C 0.0 **** -0.24
1852 H 0.5542038366641577 26.05532426599339 109.40955961006122 H 0.0 **** 0.06
1853 H 1.3171897004876882 24.833948532622315 108.36473857754848 H 0.0 **** 0.06
1854 H 1.672137278884236 24.8598181943386 110.10891094825726 H 0.0 **** 0.06
1855 H 2.2961367887789947 26.1510545336659 109.05446436634989 H 0.0 **** 0.06
1856 C 59.946088577573306 50.767871926311045 88.89297450025575 C 0.0 **** -0.24
1857 H 60.60364034650941 50.37991560057722 88.11518724443548 H 0.0 **** 0.06
1858 H 58.907321507021535 50.62432534983594 88.59558448343009 H 0.0 **** 0.06
1859 H 60.139772541648384 51.83151585605333 89.03595578987535 H 0.0 **** 0.06
1860 H 60.13454669482367 50.23645615101381 89.82595483043909 H 0.0 **** 0.06
1861 C 40.40361439709915 86.22394554748458 2.1391397800278753 C 0.0 **** -0.24
1862 H 40.046414796462074 85.46022002619662 1.4478429697886952 H 0.0 **** 0.06
1863 H 39.63746731547414 86.42217377408724 2.8881836015924307 H 0.0 **** 0.06
1864 H 40.61993870101335 87.1389561146331 1.588650116222425 H 0.0 **** 0.06
1865 H 41.31088587772763 85.87148661329914 2.630759229692444 H 0.0 **** 0.06
1866 C 69.87753548489903 67.3725793846667 86.09218407083347 C 0.0 **** -0.24
1867 H 69.55441640703386 67.70209238172745 87.08001237290597 H 0.0 **** 0.06
1868 H 69.12632950677255 67.64923780591309 85.35311363537326 H 0.0 **** 0.06
1869 H 70.00531514139405 66.29062111089775 86.09519397533154 H 0.0 **** 0.06
1870 H 70.82582964121538 67.84957529706536 85.8439491430604 H 0.0 **** 0.06
1871 C 63.49344613786022 125.41670361097705 11.26493502030916 C 0.0 **** -0.24
1872 H 63.4396493580243 125.37950076778951 12.352812451444912 H 0.0 **** 0.06
1873 H 62.54595081152992 125.77938895996256 10.866472460569469 H 0.0 **** 0.06
1874 H 63.6940717085118 124.41801821145737 10.87717437755687 H 0.0 **** 0.06
1875 H 64.2962330255834 126.09064241104866 10.964262058219834 H 0.0 **** 0.06
1876 C 53.84960612761 115.30788109764879 55.25632927940745 C 0.0 **** -0.24
1877 H 54.86965959624189 115.57394399784658 55.532772587326605 H 0.0 **** 0.06
1878 H 53.80146948942064 114.24283083317542 55.025913656011014 H 0.0 **** 0.06
1879 H 53.548418712327646 115.8832125994798 54.381581197671565 H 0.0 **** 0.06
1880 H 53.178580641930296 115.5306590720331 56.086513173340364 H 0.0 **** 0.06
1881 C 36.28056452716672 46.71944054408532 103.45923750319379 C 0.0 **** -0.24
1882 H 36.73274130833383 47.45609536369184 104.12314359097526 H 0.0 **** 0.06
1883 H 35.40872188672088 47.156771451138006 102.97281325355318 H 0.0 **** 0.06
1884 H 35.976154498133155 45.847594550057806 104.03744811444164 H 0.0 **** 0.06
1885 H 37.006870178083176 46.417463200532325 102.70359053194544 H 0.0 **** 0.06
1886 C 49.67231651075575 77.17041591960734 23.657029149376797 C 0.0 **** -0.24
1887 H 50.333213476472 78.03578909750476 23.714648435876597 H 0.0 **** 0.06
1888 H 48.85731127763138 77.38149177247864 22.964447786853327 H 0.0 **** 0.06
1889 H 49.2652330079536 76.95873432288471 24.645772996453218 H 0.0 **** 0.06
1890 H 50.235431576812275 76.30676225467397 23.303493815330057 H 0.0 **** 0.06
1891 C 77.2268186646364 128.74639029719182 52.667622607489335 C 0.0 **** -0.24
1892 H 76.6348565477937 129.04399583488973 51.80247566605246 H 0.0 **** 0.06
1893 H 76.56398023496729 128.372411634822 53.4491062914058 H 0.0 **** 0.06
1894 H 77.78137659741046 129.6062874476694 53.04188160778608 H 0.0 **** 0.06
1895 H 77.92521694388138 127.9612767271263 52.37675832231244 H 0.0 **** 0.06
1896 C 94.2511429302869 100.38480136629582 13.504736799554507 C 0.0 **** -0.24
1897 H 94.20335094035869 100.16919426246542 12.437866184381306 H 0.0 **** 0.06
1898 H 94.55236191557503 99.48654880779131 14.044108616237537 H 0.0 **** 0.06
1899 H 93.26973236182698 100.70519056692586 13.85419855249151 H 0.0 **** 0.06
1900 H 94.97737755461571 101.17696526590598 13.683884884883895 H 0.0 **** 0.06
1901 C 103.73677241212698 50.36478464966879 111.02638735735485 C 0.0 **** -0.24
1902 H 103.48408685481215 49.463741365563976 111.5849895951686 H 0.0 **** 0.06
1903 H 103.92198496287985 51.183394361907105 111.7224124740198 H 0.0 **** 0.06
1904 H 102.9096901647089 50.62767487237028 110.36701936638671 H 0.0 **** 0.06
1905 H 104.6325812694891 50.183740812755374 110.43141748126648 H 0.0 **** 0.06
1906 C 21.06800504717134 99.0963258772723 90.34346107969037 C 0.0 **** -0.24
1907 H 21.956373748244374 98.47785569351419 90.47340406585488 H 0.0 **** 0.06
1908 H 20.650805154433925 98.92762770673778 89.35046728739877 H 0.0 **** 0.06
1909 H 21.338840934979913 100.14776300169342 90.44994808786902 H 0.0 **** 0.06
1910 H 20.327442370091603 98.83342700618118 91.09900299829638 H 0.0 **** 0.06
1911 C 124.95741276310531 8.230563045226233 103.62132778778727 C 0.0 **** -0.24
1912 H 123.98659237567807 8.726329983426325 103.6570834766878 H 0.0 **** 0.06
1913 H 125.16011252026904 7.9039635526116285 102.60132727186276 H 0.0 **** 0.06
1914 H 124.94846558046734 7.366440690796949 104.28522306788038 H 0.0 **** 0.06
1915 H 125.7323911332066 8.92670012245975 103.94119046473658 H 0.0 **** 0.06
1916 C 124.73571884099783 120.41697638849021 107.12146885981034 C 0.0 **** -0.24
1917 H 125.08912413504727 121.14172332610111 107.85470758414775 H 0.0 **** 0.06
1918 H 123.71412258191928 120.12215454191572 107.36595353765213 H 0.0 **** 0.06
1919 H 125.38154115644417 119.53832042433235 107.1375863902309 H 0.0 **** 0.06
1920 H 124.75747874593026 120.86496446604028 106.12790674729334 H 0.0 **** 0.06
1921 C 80.41834829994662 116.36378449516312 29.17203917303273 C 0.0 **** -0.24
1922 H 79.84012959009556 115.44215063191147 29.23885699534634 H 0.0 **** 0.06
1923 H 81.40270014353474 116.20832068609666 29.614492521291808 H 0.0 **** 0.06
1924 H 79.89882703925433 117.15838280556953 29.708088316648237 H 0.0 **** 0.06
1925 H 80.53115579477254 116.64552498374222 28.12469716219502 H 0.0 **** 0.06
1926 C 45.58733203301935 43.07708301004584 41.300553086273595 C 0.0 **** -0.24
1927 H 45.77482208351132 42.13916140381261 40.77609993128692 H 0.0 **** 0.06
1928 H 44.54746903766084 43.36978665449513 41.15774917584332 H 0.0 **** 0.06
1929 H 46.242413658999276 43.852078041644546 40.90190127598905 H 0.0 **** 0.06
1930 H 45.785521003923535 42.944414445638984 42.36366295661318 H 0.0 **** 0.06
1931 C 119.19549746427111 69.25110678281011 61.817471784002805 C 0.0 **** -0.24
1932 H 119.56533882763011 68.89702131113893 62.779459977873046 H 0.0 **** 0.06
1933 H 119.96587829959918 69.11130655610846 61.058535168793014 H 0.0 **** 0.06
1934 H 118.94567543654097 70.30943016812503 61.89107900932021 H 0.0 **** 0.06
1935 H 118.30509729331419 68.68666909586803 61.54081298002478 H 0.0 **** 0.06
1936 C 102.49240190614597 82.79634685068362 12.24165373971734 C 0.0 **** -0.24
1937 H 101.57869793348647 82.31187314069433 12.58520681586165 H 0.0 **** 0.06
1938 H 102.43042355797911 83.86767699071027 12.436492047425098 H 0.0 **** 0.06
1939 H 102.6132476911601 82.6279595009247 11.171751668995181 H 0.0 **** 0.06
1940 H 103.34685398655608 82.37909304886347 12.774705697526972 H 0.0 **** 0.06
1941 C 62.7232543110193 44.37895664944608 99.84674517686221 C 0.0 **** -0.24
1942 H 62.1813160706448 44.95868176991203 99.09992715007888 H 0.0 **** 0.06
1943 H 63.79581904902825 44.50392113725508 99.69654445963079 H 0.0 **** 0.06
1944 H 62.461988321174786 43.324952626523725 99.74752761957808 H 0.0 **** 0.06
1945 H 62.45241649174159 44.72696487059639 100.84403584482556 H 0.0 **** 0.06
1946 C 89.35337567832633 91.77075326630029 105.55170473896254 C 0.0 **** -0.24
1947 H 88.60026503221698 92.09999556377977 104.83520255374715 H 0.0 **** 0.06
1948 H 89.87686768620657 90.90064218459236 105.15391162174687 H 0.0 **** 0.06
1949 H 88.86786211567525 91.50497320257034 106.49081070632015 H 0.0 **** 0.06
1950 H 90.06550657525909 92.57642160391538 105.72587850054195 H 0.0 **** 0.06
1951 C 60.5102750070381 119.09453081978293 13.977794268088132 C 0.0 **** -0.24
1952 H 60.461189975065224 119.67735712586088 13.05800971393279 H 0.0 **** 0.06
1953 H 60.41153988330973 118.03454266510983 13.741722223674344 H 0.0 **** 0.06
1954 H 59.70261655537337 119.39593560691674 14.643493411282122 H 0.0 **** 0.06
1955 H 61.46849511120462 119.2692942432449 14.46724647006107 H 0.0 **** 0.06
1956 C 24.807205097064013 39.770837855361755 114.15499886939934 C 0.0 **** -0.24
1957 H 25.246116074616964 39.63241124036158 115.1433630367796 H 0.0 **** 0.06
1958 H 24.34118607348134 40.75413767897449 114.0987570116243 H 0.0 **** 0.06
1959 H 24.05442235799441 39.00082488148653 113.9818119154864 H 0.0 **** 0.06
1960 H 25.586541668508772 39.693344216408924 113.39693441958987 H 0.0 **** 0.06
1961 C 29.288934269768163 125.99555968374122 119.77664338402832 C 0.0 **** -0.24
1962 H 28.83851593236406 126.01150410081378 120.76933900354558 H 0.0 **** 0.06
1963 H 28.996484196728886 125.08064024204728 119.25963377057352 H 0.0 **** 0.06
1964 H 30.37434595193153 126.0289557399915 119.87038584382415 H 0.0 **** 0.06
1965 H 28.94589946402337 126.86062554958924 119.20843771496507 H 0.0 **** 0.06
1966 C 28.65154424946411 56.91928444022068 29.37650031434267 C 0.0 **** -0.24
1967 H 27.965938784572927 56.70724415533715 30.197210714269694 H 0.0 **** 0.06
1968 H 29.510281087015073 56.2511590221734 29.43790805532793 H 0.0 **** 0.06
1969 H 28.98939425287648 57.953799400385265 29.443825543376178 H 0.0 **** 0.06
1970 H 28.139113400337465 56.766068586037136 28.426272948742394 H 0.0 **** 0.06
1971 C 51.21096521926134 62.06266407988028 12.037021911788766 C 0.0 **** -0.24
1972 H 51.265847375405855 62.149392332379406 10.951887069497968 H 0.0 **** 0.06
1973 H 50.74515150699281 61.11384950129424 12.301851874969419 H 0.0 **** 0.06
1974 H 50.617278585389926 62.884825859647094 12.437065256519205 H 0.0 **** 0.06
1975 H 52.217157651651775 62.10402079001612 12.455168931749462 H 0.0 **** 0.06
1976 C 115.44811964039769 71.1609834692328 76.08340009083382 C 0.0 **** -0.24
1977 H 114.6750151850394 71.51735306167035 75.40316656809495 H 0.0 **** 0.06
1978 H 115.64078434650008 71.91793118701924 76.84385715667617 H 0.0 **** 0.06
1979 H 116.36399758786567 70.96822052549874 75.52282929109467 H 0.0 **** 0.06
1980 H 115.11461002046298 70.24022296269942 76.56168857606298 H 0.0 **** 0.06
1981 C 109.09246670557877 69.81217337908834 106.72680221140766 C 0.0 **** -0.24
1982 H 109.23771458297972 68.885136711918 106.17280446538481 H 0.0 **** 0.06
1983 H 109.51992881505095 69.70901044052971 107.72534222261464 H 0.0 **** 0.06
1984 H 108.02703745979773 70.02394507515803 106.80775684831366 H 0.0 **** 0.06
1985 H 109.58721386854984 70.63002556004457 106.20205124585408 H 0.0 **** 0.06
1986 C 30.409889494297232 89.46631540300382 41.835295010212675 C 0.0 **** -0.24
1987 H 30.814569560346342 89.26465252273402 42.82683198241973 H 0.0 **** 0.06
1988 H 29.32370179921938 89.37689088434047 41.86098617998037 H 0.0 **** 0.06
1989 H 30.816748095826654 88.74597343758893 41.124522834354835 H 0.0 **** 0.06
1990 H 30.685620466946574 90.4752497267686 41.52806147430739 H 0.0 **** 0.06
1991 C 45.85252830565739 18.268900986011147 46.847510798874396 C 0.0 **** -0.24
1992 H 45.09226425115556 17.58780300771599 47.22872403532173 H 0.0 **** 0.06
1993 H 45.507592948840774 19.297798426931593 46.959337620172874 H 0.0 **** 0.06
1994 H 46.03287890341187 18.058456571198974 45.793325672454046 H 0.0 **** 0.06
1995 H 46.776793256361195 18.132658951308372 47.40930426393652 H 0.0 **** 0.06
1996 C 99.9302238780884 80.64471747875686 130.01575566458274 C 0.0 **** -0.24
1997 H 99.59198672327788 81.29862181070504 129.2122077829788 H 0.0 **** 0.06
1998 H 100.95126879341271 80.32031775704189 129.81332887037576 H 0.0 **** 0.06
1999 H 99.27699046045393 79.77388087773932 130.07510390365374 H 0.0 **** 0.06
2000 H 99.9013539942127 81.18592799435669 130.96080439756767 H 0.0 **** 0.06
2001 C 80.69642044303447 50.57794658351497 85.61072573711256 C 0.0 **** -0.24
2002 H 81.22714099099073 50.383488908144415 84.67918865581473 H 0.0 **** 0.06
2003 H 80.64048706357528 49.65940766653236 86.19555924143862 H 0.0 **** 0.06
2004 H 79.68841534699744 50.929536512928394 85.38853039254234 H 0.0 **** 0.06
2005 H 81.22909670130107 51.33925824744364 86.18045989846183 H 0.0 **** 0.06
2006 C 117.91446710881377 67.0136609396285 76.4556069855671 C 0.0 **** -0.24
2007 H 118.5475323057089 66.27483863637084 75.96282142702155 H 0.0 **** 0.06
2008 H 117.5838625454806 67.75354353784401 75.72575638015113 H 0.0 **** 0.06
2009 H 118.48128607130735 67.50893740771544 77.24359107166443 H 0.0 **** 0.06
2010 H 117.04659151257658 66.51692407207949 76.88856525687738 H 0.0 **** 0.06
2011 C 110.57043584279867 33.21968468733928 5.044315027297728 C 0.0 **** -0.24
2012 H 110.4232498200316 33.77163155518103 4.116423140215431 H 0.0 **** 0.06
2013 H 110.95187420467823 32.22384712002365 4.817626228006361 H 0.0 **** 0.06
2014 H 109.61930901127542 33.134918814315 5.570618178590735 H 0.0 **** 0.06
2015 H 111.2866597779649 33.74986384021471 5.672083944533085 H 0.0 **** 0.06
2016 C 39.02497859385052 106.72185261162625 44.26996590230743 C 0.0 **** -0.24
2017 H 38.55847544765827 107.00372655322266 45.2132862613463 H 0.0 **** 0.06
2018 H 39.903257891444724 107.34445927040764 44.0978295498569 H 0.0 **** 0.06
2019 H 38.31369576415529 106.86410300836829 43.456658454976946 H 0.0 **** 0.06
2020 H 39.32437920558392 105.67417943013419 44.31177138952748 H 0.0 **** 0.06
2021 C 60.84618983298533 100.2669239074115 30.18779740844667 C 0.0 **** -0.24
2022 H 61.02053436269627 99.3491337392854 30.750710142352318 H 0.0 **** 0.06
2023 H 59.85432793781251 100.23413053014905 29.738577012084875 H 0.0 **** 0.06
2024 H 61.59805063706612 100.36008024346235 29.404057844182404 H 0.0 **** 0.06
2025 H 60.913914909005314 101.12264938811492 30.86025836551326 H 0.0 **** 0.06
2026 C 20.912480792363304 126.30342005435352 126.31862032462382 C 0.0 **** -0.24
2027 H 21.09286110908848 126.00614028062654 127.35175543538145 H 0.0 **** 0.06
2028 H 20.62754689451142 125.4286826536279 125.73334118767428 H 0.0 **** 0.06
2029 H 21.820855746474585 126.73987134073218 125.90270961813744 H 0.0 **** 0.06
2030 H 20.10889104772418 127.03939575074503 126.28834196260831 H 0.0 **** 0.06
2031 C 62.00080936346396 4.097770202179532 47.266662490586334 C 0.0 **** -0.24
2032 H 61.12497445737685 3.500287016316811 47.01256691905074 H 0.0 **** 0.06
2033 H 61.7195670742247 5.15089181521013 47.31471709604255 H 0.0 **** 0.06
2034 H 62.76783340356897 3.960451279187815 46.50427799291851 H 0.0 **** 0.06
2035 H 62.388530988395274 3.7810077011504752 48.234020147586676 H 0.0 **** 0.06
2036 C 43.15472569576576 79.57302356803719 38.64636749958993 C 0.0 **** -0.24
2037 H 43.447643667519344 80.54774558323032 38.254906669100876 H 0.0 **** 0.06
2038 H 43.94148616812777 79.19310404638206 39.29914668225388 H 0.0 **** 0.06
2039 H 43.00353130599541 78.88009391713686 37.818370970429214 H 0.0 **** 0.06
2040 H 42.22834236330317 79.67117289153276 39.21178598934108 H 0.0 **** 0.06
2041 C 105.03759751707359 102.80104244895858 71.30655722515428 C 0.0 **** -0.24
2042 H 104.55273640911349 103.613067250673 71.84828306728457 H 0.0 **** 0.06
2043 H 105.71249689505723 103.2161334659474 70.55730572769211 H 0.0 **** 0.06
2044 H 104.28107714972023 102.18897786313937 70.81548254030032 H 0.0 **** 0.06
2045 H 105.60467155520043 102.18642883181326 72.00583443645644 H 0.0 **** 0.06
2046 C 7.6801028888256155 21.139520485110722 97.87459714908375 C 0.0 **** -0.24
2047 H 7.916270127950241 20.407411676819464 97.10262942003136 H 0.0 **** 0.06
2048 H 7.38544171614771 22.079950915155166 97.40661318675124 H 0.0 **** 0.06
2049 H 8.55749307832977 21.30399462740371 98.50017383313482 H 0.0 **** 0.06
2050 H 6.85998023794852 20.766938187439706 98.48964334900555 H 0.0 **** 0.06
2051 C 129.76713432713967 84.02360807314783 26.293648251179505 C 0.0 **** -0.24
2052 H 129.69386919909175 84.91003286286758 25.664055724763095 H 0.0 **** 0.06
2053 H 130.75166424270577 83.5714228104294 26.173224778810464 H 0.0 **** 0.06
2054 H 128.9994203670933 83.30693244777754 26.00254213038751 H 0.0 **** 0.06
2055 H 129.62212565026823 84.30622495892649 27.33673055614002 H 0.0 **** 0.06
2056 C 57.363586230923616 5.942786403453084 17.292286727428106 C 0.0 **** -0.24
2057 H 57.86510471723909 6.617598590657423 16.598944703396185 H 0.0 **** 0.06
2058 H 58.10184044231336 5.479193890702021 17.94573535255296 H 0.0 **** 0.06
2059 H 56.83734977741197 5.170065362354364 16.73078790776313 H 0.0 **** 0.06
2060 H 56.64815537285365 6.505438157554607 17.893383435075492 H 0.0 **** 0.06
2061 C 115.08114132218199 40.1815144948753 117.49892377341567 C 0.0 **** -0.24
2062 H 115.24349227046875 40.61304718473576 116.51137166745033 H 0.0 **** 0.06
2063 H 114.0439101253431 40.33768066908391 117.79758598155152 H 0.0 **** 0.06
2064 H 115.74316030055232 40.663488375793435 118.21959264493202 H 0.0 **** 0.06
2065 H 115.29461266372508 39.113409648776155 117.46861781899497 H 0.0 **** 0.06
2066 C 71.02558200664384 43.66764584543543 42.39490841661018 C 0.0 **** -0.24
2067 H 71.02327453635877 44.53146016306681 43.06003998001029 H 0.0 **** 0.06
2068 H 69.99964596469627 43.39143819139497 42.15503356859699 H 0.0 **** 0.06
2069 H 71.52256358091802 42.8319497084546 42.88691320771687 H 0.0 **** 0.06
2070 H 71.5585902593522 43.918341097419955 41.47724583381182 H 0.0 **** 0.06
2071 C 85.38297983468388 104.96582454806389 127.21473443688589 C 0.0 **** -0.24
2072 H 85.8216105304861 105.95115626435967 127.37264579591775 H 0.0 **** 0.06
2073 H 86.07703882515277 104.34632309728931 126.64631243879009 H 0.0 **** 0.06
2074 H 84.44894113045768 105.06861209916508 126.6614117939952 H 0.0 **** 0.06
2075 H 85.18342724506633 104.49757466724338 128.17879527757995 H 0.0 **** 0.06
2076 C 59.72095044987998 8.291234764272623 48.45600983246143 C 0.0 **** -0.24
2077 H 59.71551024742641 8.655296590234542 47.428482277382045 H 0.0 **** 0.06
2078 H 59.83457484338649 9.133244364455454 49.138970162589004 H 0.0 **** 0.06
2079 H 60.551699049212885 7.598612862898705 48.59118430572153 H 0.0 **** 0.06
2080 H 58.78206573560598 7.778401804389404 48.66413071610768 H 0.0 **** 0.06
2081 C 104.76303380429982 110.97466953971373 55.87273861085873 C 0.0 **** -0.24
2082 H 105.42032256991338 110.10542863011518 55.83615669524433 H 0.0 **** 0.06
2083 H 103.78366028922142 110.70737856300337 55.4767847222776 H 0.0 **** 0.06
2084 H 105.1910492225679 111.77820582753772 55.27313147116257 H 0.0 **** 0.06
2085 H 104.66017641029437 111.30743275046413 56.90558974783853 H 0.0 **** 0.06
2086 C 36.48919316647056 90.96954697257087 89.07273271943373 C 0.0 **** -0.24
2087 H 37.424434789166924 91.49380763597134 88.87800650953139 H 0.0 **** 0.06
2088 H 36.32001105688076 90.22517626906225 88.29488561373432 H 0.0 **** 0.06
2089 H 35.66570150086065 91.68466437863928 89.07635522386673 H 0.0 **** 0.06
2090 H 36.54516263769051 90.47577026070098 90.04321532356133 H 0.0 **** 0.06
2091 C 15.4176364262633 51.54489436629444 69.12088449414509 C 0.0 **** -0.24
2092 H 16.123428566801095 50.71448465084586 69.0993523508714 H 0.0 **** 0.06
2093 H 15.832070497136556 52.357429085528636 69.71820956283321 H 0.0 **** 0.06
2094 H 14.478274932990004 51.210754172478374 69.56261500646686 H 0.0 **** 0.06
2095 H 15.237231520015257 51.894655590669544 68.10420280907225 H 0.0 **** 0.06
2096 C 128.01135053549012 69.42059934105518 89.03688700946338 C 0.0 **** -0.24
2097 H 127.61771254556172 68.56352951197113 89.58317988181705 H 0.0 **** 0.06
2098 H 127.22263165547761 70.16188937556603 88.9069905014943 H 0.0 **** 0.06
2099 H 128.36971888997164 69.0956500263558 88.06071465297487 H 0.0 **** 0.06
2100 H 128.83563411714738 69.86101648350174 89.59885751572392 H 0.0 **** 0.06
2101 C 65.1942736647944 98.02852303710748 76.96825060850634 C 0.0 **** -0.24
2102 H 65.99017522209701 98.57910547575457 77.46915391806796 H 0.0 **** 0.06
2103 H 64.27547123369615 98.61458859003793 76.99414932080147 H 0.0 **** 0.06
2104 H 65.0339938626523 97.07767278411387 77.47811798771502 H 0.0 **** 0.06
2105 H 65.47833277864342 97.84213617238473 75.93252003070852 H 0.0 **** 0.06
2106 C 27.81379805158923 0.1417246974595514 22.938930724643 C 0.0 **** -0.24
2107 H 27.38268946483072 -0.8235967126552168 23.201524232347765 H 0.0 **** 0.06
2108 H 27.96621176109244 0.7308506134005484 23.843425723636756 H 0.0 **** 0.06
2109 H 27.13544676759267 0.6727902656669471 22.270565994743023 H 0.0 **** 0.06
2110 H 28.769916240597865 -0.010717365358914321 22.43870890492194 H 0.0 **** 0.06
2111 C 92.97667981657656 49.08390820208395 67.33649722751439 C 0.0 **** -0.24
2112 H 92.95571630003661 49.98256847853112 67.95307951221886 H 0.0 **** 0.06
2113 H 93.86273825788675 49.10120841867372 66.7011007622369 H 0.0 **** 0.06
2114 H 92.08286276782809 49.04953913034559 66.71409760940672 H 0.0 **** 0.06
2115 H 93.0071302472669 48.20428742640899 67.97877402164661 H 0.0 **** 0.06
2116 C 66.74265359249368 3.2332989624878863 4.0980659945399225 C 0.0 **** -0.24
2117 H 67.22820862784275 4.087408655940877 3.6257753834486834 H 0.0 **** 0.06
2118 H 65.81542268017498 3.5591995191406554 4.5705659361700555 H 0.0 **** 0.06
2119 H 67.40532432408999 2.8100734067934283 4.8522059267231725 H 0.0 **** 0.06
2120 H 66.52044904429015 2.479025943851177 3.344194825789657 H 0.0 **** 0.06
2121 C 97.40650439656798 81.27783336822067 46.604341968644974 C 0.0 **** -0.24
2122 H 98.32294096287804 81.77925146415659 46.291125662951174 H 0.0 **** 0.06
2123 H 96.70633711090316 82.0145901445524 46.99818292287779 H 0.0 **** 0.06
2124 H 97.63953378258832 80.54651394797891 47.37802449967916 H 0.0 **** 0.06
2125 H 96.95960149838955 80.77223120662373 45.748734765995096 H 0.0 **** 0.06
2126 C 73.29594190526247 46.56538533738504 107.7819929924603 C 0.0 **** -0.24
2127 H 73.33604245441121 45.65235828636193 107.18791048728576 H 0.0 **** 0.06
2128 H 74.03146147167222 46.50913907575176 108.58499974449153 H 0.0 **** 0.06
2129 H 72.29967610834603 46.678396394669136 108.20936335250472 H 0.0 **** 0.06
2130 H 73.51781857474995 47.42286613038587 107.1456998416071 H 0.0 **** 0.06
2131 C 7.413067630144603 114.08962489160051 51.2522723411203 C 0.0 **** -0.24
2132 H 6.378990268785003 113.82654045757853 51.47576749105167 H 0.0 **** 0.06
2133 H 8.027925173627874 113.9291070041168 52.13788607185691 H 0.0 **** 0.06
2134 H 7.46565709244209 115.13769209640638 50.95754373577947 H 0.0 **** 0.06
2135 H 7.779084406177226 113.46414917056579 50.437116282889406 H 0.0 **** 0.06
2136 C 70.36967359506357 14.00842151807322 47.94579574428817 C 0.0 **** -0.24
2137 H 69.65637935688062 14.217135038651833 48.74374406339618 H 0.0 **** 0.06
2138 H 70.12314653149501 14.610812790358352 47.07093993720789 H 0.0 **** 0.06
2139 H 70.32443699386224 12.951045433775931 47.68547877961147 H 0.0 **** 0.06
2140 H 71.37607813279601 14.255867880259274 48.28521250875105 H 0.0 **** 0.06
2141 C 0.8522075367988329 23.266126577807768 89.40050311483157 C 0.0 **** -0.24
2142 H 0.3378161315053827 23.635962692746375 90.2881225512159 H 0.0 **** 0.06
2143 H 1.2004403882741173 24.110579870667834 88.80547622048374 H 0.0 **** 0.06
2144 H 0.1646744818700565 22.662884770142796 88.80725264962439 H 0.0 **** 0.06
2145 H 1.7037788984191344 22.656786146663876 89.70192952596904 H 0.0 **** 0.06
2146 C 9.410713411159463 89.30071832923859 116.53553680895203 C 0.0 **** -0.24
2147 H 9.286216704127924 88.24114261186676 116.75987664620664 H 0.0 **** 0.06
2148 H 10.012885034273836 89.76889624550084 117.31382994993653 H 0.0 **** 0.06
2149 H 8.432894920456533 89.77997390536764 116.49464026593813 H 0.0 **** 0.06
2150 H 9.909755959533413 89.41186319282967 115.5729097675786 H 0.0 **** 0.06
2151 C 63.382603844995174 41.60047698148395 88.49943665716415 C 0.0 **** -0.24
2152 H 63.38440776355122 42.30548355249732 87.66795606998141 H 0.0 **** 0.06
2153 H 63.89949566610085 40.687580140726354 88.20233446325955 H 0.0 **** 0.06
2154 H 62.35406728208994 41.36415970244255 88.77202086121122 H 0.0 **** 0.06
2155 H 63.89179000881177 42.04672618236941 89.35359036962097 H 0.0 **** 0.06
2156 C 119.35709991858147 99.39095514949938 14.359153576709247 C 0.0 **** -0.24
2157 H 118.32121006493654 99.32584316615657 14.027537738460325 H 0.0 **** 0.06
2158 H 119.443361532013 100.15269843823874 15.134219111713662 H 0.0 **** 0.06
2159 H 119.99176745764515 99.65768772394273 13.514863197754266 H 0.0 **** 0.06
2160 H 119.6720606197311 98.42759126965954 14.75999425890879 H 0.0 **** 0.06
2161 C 62.71215650032022 68.15033470788359 111.5358026567892 C 0.0 **** -0.24
2162 H 61.77033838586121 68.66657545286421 111.35015353630055 H 0.0 **** 0.06
2163 H 63.32704974279582 68.74838504712369 112.2091291890413 H 0.0 **** 0.06
2164 H 63.23911195962282 68.00722805879158 110.59320421658464 H 0.0 **** 0.06
2165 H 62.511625388683086 67.18116621454107 111.99202206491998 H 0.0 **** 0.06
2166 C 114.40685879047057 55.47076650302874 51.22438802644123 C 0.0 **** -0.24
2167 H 113.89357264860992 55.31910725003904 50.27533522246931 H 0.0 **** 0.06
2168 H 115.12553309984524 56.283988016954595 51.12342530502289 H 0.0 **** 0.06
2169 H 114.93040271861678 54.556019645139685 51.504619150588084 H 0.0 **** 0.06
2170 H 113.67848472001596 55.722392052076145 51.99597750751467 H 0.0 **** 0.06
2171 C 29.252488139976194 54.62922269689862 42.616968816736346 C 0.0 **** -0.24
2172 H 29.52999786550108 53.61501732430885 42.33037631001389 H 0.0 **** 0.06
2173 H 29.232735845709236 55.264458137389084 41.73049583702442 H 0.0 **** 0.06
2174 H 29.983166616756293 55.01857414259959 43.326635598726455 H 0.0 **** 0.06
2175 H 28.26526502087175 54.6191691772496 43.079718156207775 H 0.0 **** 0.06
2176 C 5.68844873566421 51.94515465658546 1.4703922193193364 C 0.0 **** -0.24
2177 H 6.363852313199587 51.367272377889236 0.8391786468855287 H 0.0 **** 0.06
2178 H 6.0190298359810015 52.98316108685651 1.5016689686783309 H 0.0 **** 0.06
2179 H 5.692268205220927 51.53131286246496 2.478668391525872 H 0.0 **** 0.06
2180 H 4.678965437100629 51.8965813715745 1.0612472383576232 H 0.0 **** 0.06
2181 C 73.36022620730915 53.07101404025531 59.86446362523711 C 0.0 **** -0.24
2182 H 72.65509972535517 52.406558663128365 59.364267453168225 H 0.0 **** 0.06
2183 H 73.24336399381082 54.08319833795649 59.47681473850494 H 0.0 **** 0.06
2184 H 74.37749667981996 52.72563987068261 59.68109263915102 H 0.0 **** 0.06
2185 H 73.16358860520785 53.06851986447559 60.936748532619134 H 0.0 **** 0.06
2186 C 77.1374687994887 9.770169429576356 1.5307593051765878 C 0.0 **** -0.24
2187 H 76.91230990399202 10.303307369824115 2.4549805637968873 H 0.0 **** 0.06
2188 H 76.29759535024289 9.126761773692714 1.2683328310892996 H 0.0 **** 0.06
2189 H 78.03189326465808 9.161712639164307 1.6717762961550875 H 0.0 **** 0.06
2190 H 77.30968550045199 10.488880934694023 0.7295005101713805 H 0.0 **** 0.06
2191 C 4.664198193969664 94.86561517643298 72.52572270953513 C 0.0 **** -0.24
2192 H 5.377646833712355 94.04305642903154 72.4707259364445 H 0.0 **** 0.06
2193 H 5.040160349030508 95.6268946230777 73.21043113083502 H 0.0 **** 0.06
2194 H 3.706965796888941 94.49200674005624 72.8887961474932 H 0.0 **** 0.06
2195 H 4.532884571862837 95.30019989636253 71.53497738400438 H 0.0 **** 0.06
2196 C 46.514733349189456 50.41217103101232 71.92448232001388 C 0.0 **** -0.24
2197 H 45.688065768136475 51.110029800666695 71.79136087927955 H 0.0 **** 0.06
2198 H 47.45975328894683 50.93659670869212 71.77524888624103 H 0.0 **** 0.06
2199 H 46.429476597487856 49.604718710013486 71.19717254265109 H 0.0 **** 0.06
2200 H 46.48287638669391 49.99941992314942 72.93237620215118 H 0.0 **** 0.06
2201 C 84.38440508867194 97.90382825601095 77.08198649017496 C 0.0 **** -0.24
2202 H 85.2816014589256 98.37545863023716 77.48165745327653 H 0.0 **** 0.06
2203 H 83.94159627422137 98.55104060597364 76.32439422338375 H 0.0 **** 0.06
2204 H 83.66751117853343 97.74483158496254 77.8874718379201 H 0.0 **** 0.06
2205 H 84.64517320818764 96.9455321060312 76.63366305452165 H 0.0 **** 0.06
2206 C 8.709274126102798 116.14765185150102 18.914341779490655 C 0.0 **** -0.24
2207 H 8.286424726384269 116.51180012741591 17.978176798506865 H 0.0 **** 0.06
2208 H 7.920779406829951 115.69715781163049 19.51836143648552 H 0.0 **** 0.06
2209 H 9.15413243265374 116.98002115774244 19.459775462180403 H 0.0 **** 0.06
2210 H 9.475344521090022 115.40258354419902 18.702010011801633 H 0.0 **** 0.06
2211 C 36.765594894401296 21.838518467853135 85.09215589074964 C 0.0 **** -0.24
2212 H 37.267306870134455 22.802568365133055 85.16979804751898 H 0.0 **** 0.06
2213 H 36.90732386962064 21.280258976321647 86.01885316708226 H 0.0 **** 0.06
2214 H 37.188831182596715 21.274429477547557 84.25994123938077 H 0.0 **** 0.06
2215 H 35.70048102529668 21.99537696763994 84.92072559422778 H 0.0 **** 0.06
2216 C 57.47606107175892 52.28369133225905 28.55689736849999 C 0.0 **** -0.24
2217 H 57.836272943195524 53.1081246024 29.171644974212967 H 0.0 **** 0.06
2218 H 56.75742250306723 51.693531236788274 29.126761576686533 H 0.0 **** 0.06
2219 H 58.31619191876126 51.653632634753194 28.265997679806304 H 0.0 **** 0.06
2220 H 56.99340561685898 52.68056369591024 27.664141257623015 H 0.0 **** 0.06
2221 C 128.4382679179938 81.40114254197943 23.332642231789634 C 0.0 **** -0.24
2222 H 128.24982543767862 80.76656251709397 24.19811033916514 H 0.0 **** 0.06
2223 H 129.32217897087696 81.04220430175712 22.80486567636612 H 0.0 **** 0.06
2224 H 128.60300362601748 82.42696008092753 23.662122105239916 H 0.0 **** 0.06
2225 H 127.57792666659856 81.36813720947595 22.664253090467582 H 0.0 **** 0.06
2226 C 22.348850229128146 32.29166150178162 14.764522597545522 C 0.0 **** -0.24
2227 H 21.791082076137194 32.911989562587905 14.063394777524138 H 0.0 **** 0.06
2228 H 22.620817884803735 31.352589270004728 14.281524187796322 H 0.0 **** 0.06
2229 H 21.731718158160895 32.085825944956014 15.638762934864303 H 0.0 **** 0.06
2230 H 23.252511917048132 32.81672380583956 15.073296907069846 H 0.0 **** 0.06
2231 C 104.06853514205841 25.854005815956384 123.16146784911327 C 0.0 **** -0.24
2232 H 103.65229501819312 26.42730943622007 123.99024081368981 H 0.0 **** 0.06
2233 H 103.96859902740621 24.788963413799763 123.37098617702475 H 0.0 **** 0.06
2234 H 105.12261618838345 26.103661247065702 123.04066313940436 H 0.0 **** 0.06
2235 H 103.53041254443106 26.096861081280224 122.24606860801293 H 0.0 **** 0.06
2236 C 51.114695880854526 95.14333828614457 40.436264756539174 C 0.0 **** -0.24
2237 H 51.209872457047496 94.13341085933644 40.03742709468463 H 0.0 **** 0.06
2238 H 51.778457711905034 95.81373941541901 39.89020612189006 H 0.0 **** 0.06
2239 H 51.38625257701959 95.14348795403995 41.49216505471429 H 0.0 **** 0.06
2240 H 50.08405284272811 95.48145939784877 40.32589471222815 H 0.0 **** 0.06
2241 C 13.003756911135543 38.59502084968207 113.76630840058489 C 0.0 **** -0.24
2242 H 12.541619114898992 39.201273752540175 114.54497617795268 H 0.0 **** 0.06
2243 H 12.2428260739951 37.98238655502561 113.28316045940774 H 0.0 **** 0.06
2244 H 13.762061039735901 37.94936463993699 114.21128871232513 H 0.0 **** 0.06
2245 H 13.470201234260205 39.245622501168015 113.02686494250601 H 0.0 **** 0.06
2246 C 123.2395543602522 6.967543501475234 90.38161932750404 C 0.0 **** -0.24
2247 H 123.47598533405014 6.724970435082696 89.34536974510104 H 0.0 **** 0.06
2248 H 122.68107156481368 6.144076221285047 90.82815504572754 H 0.0 **** 0.06
2249 H 122.63833084460246 7.87514002428253 90.41469809061755 H 0.0 **** 0.06
2250 H 124.16479597412159 7.123797153444457 90.93767356075637 H 0.0 **** 0.06
2251 C 119.639705200386 41.149913406689905 47.24535184285756 C 0.0 **** -0.24
2252 H 119.88669329762914 41.64661121100551 46.30770554869315 H 0.0 **** 0.06
2253 H 118.55865900586275 41.029113035142245 47.31817279171172 H 0.0 **** 0.06
2254 H 119.99594800109298 41.75197844796196 48.08069379169012 H 0.0 **** 0.06
2255 H 120.11669096274977 40.170025699976236 47.27356808194793 H 0.0 **** 0.06
2256 C 11.509467575241153 36.27901397002608 109.13211282940566 C 0.0 **** -0.24
2257 H 12.419032657777823 35.719701782458934 108.90955093922454 H 0.0 **** 0.06
2258 H 11.691643925487966 36.94714831683111 109.97365707905269 H 0.0 **** 0.06
2259 H 10.709082584098741 35.584252565673886 109.38547796732911 H 0.0 **** 0.06
2260 H 11.220726144593051 36.86366276990448 108.25906036950471 H 0.0 **** 0.06
2261 C 28.85753905123525 15.257751455236416 99.08107070221367 C 0.0 **** -0.24
2262 H 27.887245346166566 15.038852935118626 98.63604374108989 H 0.0 **** 0.06
2263 H 28.71394784298971 15.776421583889146 100.0288013163603 H 0.0 **** 0.06
2264 H 29.433136903062632 15.8893972753539 98.40431805118276 H 0.0 **** 0.06
2265 H 29.396242058294774 14.326107068206056 99.25423905550107 H 0.0 **** 0.06
2266 C 52.64829944832796 88.02902159102825 7.096536875062213 C 0.0 **** -0.24
2267 H 52.25022912161762 88.82065543390762 7.730779970904166 H 0.0 **** 0.06
2268 H 53.68455624570146 87.83126069692985 7.370335956834936 H 0.0 **** 0.06
2269 H 52.60131503234922 88.3419334325627 6.053627916562846 H 0.0 **** 0.06
2270 H 52.05753564804587 87.12268915325309 7.230626889438923 H 0.0 **** 0.06
2271 C 119.63135281381497 97.00238126292041 20.389377362154057 C 0.0 **** -0.24
2272 H 119.38537920783705 96.10228526164983 20.953126122601823 H 0.0 **** 0.06
2273 H 119.7065066037702 96.75623522811672 19.32915633319032 H 0.0 **** 0.06
2274 H 120.58356279647572 97.4008137129864 20.738605314503005 H 0.0 **** 0.06
2275 H 118.84958367444825 97.74746513143671 20.535426961883132 H 0.0 **** 0.06
2276 C 10.92194599687058 6.709364475685703 80.19166473275553 C 0.0 **** -0.24
2277 H 10.624203115100062 6.665332075773364 79.14395494278435 H 0.0 **** 0.06
2278 H 11.878622179711481 6.201923004083881 80.31920434828052 H 0.0 **** 0.06
2279 H 10.16539998470957 6.21922766511716 80.80508673407195 H 0.0 **** 0.06
2280 H 11.018736808932786 7.750460703147979 80.49865759830291 H 0.0 **** 0.06
2281 C 122.08045070670426 53.264821513980564 40.44870755262036 C 0.0 **** -0.24
2282 H 122.7739668229294 52.474264937372055 40.733493623806496 H 0.0 **** 0.06
2283 H 121.9785918271482 53.97211457183701 41.27151053203528 H 0.0 **** 0.06
2284 H 121.10689896289327 52.829718494715536 40.221551507557 H 0.0 **** 0.06
2285 H 122.46068283712435 53.78276840191921 39.56852064725254 H 0.0 **** 0.06
2286 C 65.54277313518362 50.26772622158481 44.84526640902969 C 0.0 **** -0.24
2287 H 66.48902764280574 50.24037235375697 45.38543363547255 H 0.0 **** 0.06
2288 H 65.04870545450797 51.22306100278864 45.02733549997073 H 0.0 **** 0.06
2289 H 64.90311642540631 49.45621286618419 45.19134414988727 H 0.0 **** 0.06
2290 H 65.73060058502857 50.15348058189973 43.7779195946233 H 0.0 **** 0.06
2291 C 71.35440367191171 89.11548984734921 35.23781528649704 C 0.0 **** -0.24
2292 H 71.26380326196767 88.33658168144197 35.995874114009666 H 0.0 **** 0.06
2293 H 72.25017841866702 89.70663915390155 35.43177055874929 H 0.0 **** 0.06
2294 H 70.47745408427488 89.76136263532236 35.27542119559794 H 0.0 **** 0.06
2295 H 71.42660028051023 88.6569125959569 34.2518842575613 H 0.0 **** 0.06
2296 C 71.07551071282602 6.621052264240191 123.08043560012158 C 0.0 **** -0.24
2297 H 71.17044460552628 7.618635417930932 122.6504682402965 H 0.0 **** 0.06
2298 H 71.76125051717129 6.520698821638945 123.92107435389016 H 0.0 **** 0.06
2299 H 71.31782651251793 5.875419452087229 122.32267424175683 H 0.0 **** 0.06
2300 H 70.05236592131274 6.470436926111034 123.42528664569437 H 0.0 **** 0.06
2301 C 115.53407010734335 11.50532005592197 60.03513632615574 C 0.0 **** -0.24
2302 H 116.24990410379768 10.684257017146479 59.99030696274309 H 0.0 **** 0.06
2303 H 114.5411006260892 11.108985436002172 60.25063116741666 H 0.0 **** 0.06
2304 H 115.51825198954421 12.02692495848612 59.07798555308244 H 0.0 **** 0.06
2305 H 115.82663733735647 12.199845701959475 60.82342312852256 H 0.0 **** 0.06
2306 C 112.11508956365259 90.41452506906373 55.76648648148094 C 0.0 **** -0.24
2307 H 112.1865246222651 91.50011778866633 55.703423650850624 H 0.0 **** 0.06
2308 H 111.56917358110917 90.03492469828501 54.90333544319432 H 0.0 **** 0.06
2309 H 111.58936401937495 90.13871339393116 56.680252865134406 H 0.0 **** 0.06
2310 H 113.11781457010375 89.98552627453519 55.78073971927549 H 0.0 **** 0.06
2311 C 79.38930007046059 1.9137023268853568 14.179754584006133 C 0.0 **** -0.24
2312 H 80.3719939667572 2.375846504439039 14.082595082839845 H 0.0 **** 0.06
2313 H 78.63846686279756 2.5570593631471183 13.720022337228102 H 0.0 **** 0.06
2314 H 79.15525388283561 1.7768030614287795 15.235072731864648 H 0.0 **** 0.06
2315 H 79.39336309477784 0.944985705066415 13.678991037927915 H 0.0 **** 0.06
2316 C 64.55683272667542 33.33978756835296 129.68402816031644 C 0.0 **** -0.24
2317 H 64.00910640778915 32.75690138906964 130.42371118938803 H 0.0 **** 0.06
2318 H 65.11606052476075 34.12935983342959 130.18570172234567 H 0.0 **** 0.06
2319 H 63.854813129848765 33.7835623654604 128.97789651477706 H 0.0 **** 0.06
2320 H 65.24843939494947 32.688424484723896 129.1487685271023 H 0.0 **** 0.06
2321 C 92.65486658981987 15.908400257349825 1.0352368344975673 C 0.0 **** -0.24
2322 H 93.44965738766874 16.25040085929365 1.6969516954702897 H 0.0 **** 0.06
2323 H 92.9976675014833 15.037426951217213 0.475304168755855 H 0.0 **** 0.06
2324 H 92.39182543832419 16.70658479024266 0.3407533563928098 H 0.0 **** 0.06
2325 H 91.77980728325582 15.638944991790254 1.6271123030083743 H 0.0 **** 0.06
2326 C 53.01185604762608 3.406545960232993 102.76518133272563 C 0.0 **** -0.24
2327 H 53.14074753658814 2.330809429216366 102.88519123392592 H 0.0 **** 0.06
2328 H 53.77567088958534 3.790979741186085 102.08971261472598 H 0.0 **** 0.06
2329 H 53.10583809836811 3.8935422277565586 103.73600186244025 H 0.0 **** 0.06
2330 H 52.02384619657357 3.610026083975999 102.351423094019 H 0.0 **** 0.06
2331 C 31.78450158583442 8.025418975675336 122.9616711127738 C 0.0 **** -0.24
2332 H 31.92861028556615 7.28848480782284 123.75183956970331 H 0.0 **** 0.06
2333 H 30.7734984519318 8.429183827746954 123.02242568984812 H 0.0 **** 0.06
2334 H 31.929441817352483 7.5520278522160424 121.99103699284402 H 0.0 **** 0.06
2335 H 32.50655985825563 8.832875816151272 123.0834281493478 H 0.0 **** 0.06
2336 C 105.64690612923604 61.11855885882906 81.46167697773873 C 0.0 **** -0.24
2337 H 105.13854430999758 60.50017021737273 82.20133920417832 H 0.0 **** 0.06
2338 H 105.29415875450898 62.146285267358195 81.54346417666606 H 0.0 **** 0.06
2339 H 105.43276157514067 60.73890379243008 80.46170912201003 H 0.0 **** 0.06
2340 H 106.721789051732 61.087479064520295 81.63881307616761 H 0.0 **** 0.06
2341 C 1.2451874726061192 55.43816203256287 84.18100388584584 C 0.0 **** -0.24
2342 H 1.5071395016378233 54.447270694803336 84.55340557821049 H 0.0 **** 0.06
2343 H 1.452101202956186 55.48985634297385 83.11133058771308 H 0.0 **** 0.06
2344 H 1.8368131123169462 56.19033938617129 84.70299220929171 H 0.0 **** 0.06
2345 H 0.18525302572243163 55.62308153096873 84.35575863477314 H 0.0 **** 0.06
2346 C 59.01996510274313 118.19086292287133 0.16568966131461593 C 0.0 **** -0.24
2347 H 59.29859028359155 117.1579618671733 -0.04409334813144028 H 0.0 **** 0.06
2348 H 58.539660593108096 118.62282894268927 -0.7127034442270315 H 0.0 **** 0.06
2349 H 59.91281141737633 118.7644786427224 0.4126367874829384 H 0.0 **** 0.06
2350 H 58.327487847688616 118.21538494967305 1.0075960916990425 H 0.0 **** 0.06
2351 C 92.753344873963 11.807968455466693 51.020880759834455 C 0.0 **** -0.24
2352 H 93.68474575987406 11.989289179387015 50.48395740749521 H 0.0 **** 0.06
2353 H 92.90090170161422 12.015055473474092 52.081234695993075 H 0.0 **** 0.06
2354 H 92.45581671923001 10.768174922200842 50.890977760852024 H 0.0 **** 0.06
2355 H 91.97485475400705 12.461654512774032 50.6270900041993 H 0.0 **** 0.06
2356 C 99.1614024608462 114.37525780068943 5.516004726256995 C 0.0 **** -0.24
2357 H 100.12627450533114 114.70023338957402 5.125696745029643 H 0.0 **** 0.06
2358 H 99.25617277545615 114.15836098200795 6.580387586804534 H 0.0 **** 0.06
2359 H 98.84021058999045 113.47699743831065 4.989173117189239 H 0.0 **** 0.06
2360 H 98.42568392571269 115.1659013823325 5.369330178743155 H 0.0 **** 0.06
2361 C 5.026511078805925 95.36923751158287 115.11472049730982 C 0.0 **** -0.24
2362 H 4.564734177759334 94.5740843417727 115.70037399716665 H 0.0 **** 0.06
2363 H 5.752661323679277 94.93767921309163 114.42548414203317 H 0.0 **** 0.06
2364 H 5.52990836702925 96.0674867597437 115.78347802632717 H 0.0 **** 0.06
2365 H 4.2579436446597185 95.89779161769476 114.55071063068634 H 0.0 **** 0.06
2366 C 16.64735225907242 85.52523270528111 113.55402648374091 C 0.0 **** -0.24
2367 H 16.392735936372475 84.48150307239571 113.37142467629339 H 0.0 **** 0.06
2368 H 15.872721278022823 86.16697044882288 113.13156689129612 H 0.0 **** 0.06
2369 H 17.603414189365708 85.75406830598472 113.08474699205642 H 0.0 **** 0.06
2370 H 16.717699418241523 85.6993145028798 114.628069925542 H 0.0 **** 0.06
2371 C 27.42985039136471 111.03411884358289 73.98895562497754 C 0.0 **** -0.24
2372 H 27.34844829587894 111.10127306953223 75.07451380429552 H 0.0 **** 0.06
2373 H 26.86854519875206 110.16844733596614 73.63567831774262 H 0.0 **** 0.06
2374 H 28.47758503172915 110.92694204634697 73.70972511639465 H 0.0 **** 0.06
2375 H 27.02393824051734 111.94010708473715 73.53793771806644 H 0.0 **** 0.06
2376 C 129.25273224537324 106.17966009216514 0.4498392219081495 C 0.0 **** -0.24
2377 H 128.5398042804618 105.37976627049903 0.6510110055132827 H 0.0 **** 0.06
2378 H 129.8235540096295 105.93928091055278 -0.44762826281785806 H 0.0 **** 0.06
2379 H 129.93133975265937 106.28121029667051 1.2966059322104968 H 0.0 **** 0.06
2380 H 128.7153168095544 107.11556295983945 0.2998295802259179 H 0.0 **** 0.06
2381 C 8.006401077893411 28.17043327915698 19.933599078572826 C 0.0 **** -0.24
2382 H 7.732455059783032 27.309175374500832 19.325309838864825 H 0.0 **** 0.06
2383 H 7.96206004018115 27.899791918355916 20.988224395546865 H 0.0 **** 0.06
2384 H 7.311502385733501 28.988566830500794 19.739380457742698 H 0.0 **** 0.06
2385 H 9.018328019033994 28.486285607718152 19.681233063942216 H 0.0 **** 0.06
2386 C 45.02030014801113 120.65140468347138 51.24664566971188 C 0.0 **** -0.24
2387 H 45.68766246468721 121.1030789477874 50.512582747308414 H 0.0 **** 0.06
2388 H 45.48109057283003 120.69668574175044 52.23363822483341 H 0.0 **** 0.06
2389 H 44.83594668870275 119.61130318218471 50.97785739714796 H 0.0 **** 0.06
2390 H 44.07616389541262 121.19522468751555 51.2613074293491 H 0.0 **** 0.06
2391 C 36.66750089605026 26.898531420734628 58.51534361397498 C 0.0 **** -0.24
2392 H 37.23387310048125 27.597639989060667 57.89883222713857 H 0.0 **** 0.06
2393 H 35.87063539180784 27.433310568110528 59.03161202143829 H 0.0 **** 0.06
2394 H 37.332422389808386 26.44018122931749 59.248289759526045 H 0.0 **** 0.06
2395 H 36.23596647164882 26.124082030876707 57.88143933301009 H 0.0 **** 0.06
2396 C 56.96125441019339 104.3757176946196 70.9370406157459 C 0.0 **** -0.24
2397 H 56.950842804767404 105.07925014621975 71.77053341795043 H 0.0 **** 0.06
2398 H 57.07918530123092 104.92383873395733 70.00212290902707 H 0.0 **** 0.06
2399 H 56.02295140371285 103.8215112006709 70.91777691907987 H 0.0 **** 0.06
2400 H 57.791438392685876 103.68093556854961 71.0589698943249 H 0.0 **** 0.06
2401 C 65.42298704306262 123.571173686784 74.90974926694904 C 0.0 **** -0.24
2402 H 64.60603152297583 124.16184015184405 74.49413727583223 H 0.0 **** 0.06
2403 H 66.13129615332099 123.32457900977926 74.11859519985512 H 0.0 **** 0.06
2404 H 65.02417181526404 122.65277540652068 75.3406929862368 H 0.0 **** 0.06
2405 H 65.92915558255766 124.14641655812613 75.68487281094363 H 0.0 **** 0.06
2406 C 16.867304480557493 39.11828419938469 72.83089474110794 C 0.0 **** -0.24
2407 H 17.356922403705028 38.68019371781179 73.70002271158954 H 0.0 **** 0.06
2408 H 16.859841436647372 38.39565936222232 72.01468328785491 H 0.0 **** 0.06
2409 H 17.410780091307714 40.01137579199839 72.52060261728462 H 0.0 **** 0.06
2410 H 15.843345978254035 39.38768181605542 73.08851139790215 H 0.0 **** 0.06
2411 C 126.64750605769812 19.214748787654088 115.38127933317737 C 0.0 **** -0.24
2412 H 126.81564600713632 18.9614385702088 116.42799197643114 H 0.0 **** 0.06
2413 H 125.59161889814875 19.43891748598429 115.22710989315148 H 0.0 **** 0.06
2414 H 126.93676378918394 18.37189784188476 114.75335279924037 H 0.0 **** 0.06
2415 H 127.2465617531408 20.087097731185054 115.11790863073539 H 0.0 **** 0.06
2416 C 94.79975967072619 74.31838426629957 23.772955395098776 C 0.0 **** -0.24
2417 H 94.73785256874396 75.17751643903296 24.44123371618341 H 0.0 **** 0.06
2418 H 95.2120399824712 73.46626932294072 24.31414351899992 H 0.0 **** 0.06
2419 H 95.44594357941207 74.5603763426094 22.928925370112786 H 0.0 **** 0.06
2420 H 93.8033191318126 74.07013530818884 23.408157987405808 H 0.0 **** 0.06
2421 C 40.34418753387432 94.73706755116442 127.5011085339236 C 0.0 **** -0.24
2422 H 40.75986426950517 94.21068067126586 128.3608929426905 H 0.0 **** 0.06
2423 H 41.04543455831988 95.5033467449189 127.17031057156615 H 0.0 **** 0.06
2424 H 39.40128684286384 95.2056755241176 127.78400137005559 H 0.0 **** 0.06
2425 H 40.16935514376539 94.02885985905183 126.69129314758555 H 0.0 **** 0.06
2426 C 112.95291793514131 124.4324407495478 17.603368926985723 C 0.0 **** -0.24
2427 H 114.04105531157786 124.38257138277278 17.628057224441392 H 0.0 **** 0.06
2428 H 112.63279164265326 124.90959929734542 16.676285094151837 H 0.0 **** 0.06
2429 H 112.59598207721872 125.01472075956255 18.45271881878898 H 0.0 **** 0.06
2430 H 112.54114383561348 123.42481284041394 17.65423661189709 H 0.0 **** 0.06
2431 C 49.549026676381885 88.29570014719228 31.664200917663436 C 0.0 **** -0.24
2432 H 49.664305186080696 89.06808845973124 32.42366161344421 H 0.0 **** 0.06
2433 H 49.64289552248508 88.74136871854414 30.67419253239791 H 0.0 **** 0.06
2434 H 48.56567126206866 87.83332981242661 31.763081701138134 H 0.0 **** 0.06
2435 H 50.32083633723116 87.53774906010705 31.79763427202289 H 0.0 **** 0.06
2436 C 118.34352119494713 114.30728974787887 37.626915644724676 C 0.0 **** -0.24
2437 H 119.27830454776529 113.93823511558956 38.04712767125304 H 0.0 **** 0.06
2438 H 117.61061693656245 113.50050763998605 37.6066803333471 H 0.0 **** 0.06
2439 H 118.51723507869113 114.66577464761438 36.6115769737784 H 0.0 **** 0.06
2440 H 117.96703920629659 115.12552152312553 38.241617686112846 H 0.0 **** 0.06
2441 C 17.54986967605238 27.572262344630545 60.50250129322768 C 0.0 **** -0.24
2442 H 18.386182559003288 28.090082468060103 60.972063374366996 H 0.0 **** 0.06
2443 H 16.943006696592306 27.092177085986577 61.27132834565725 H 0.0 **** 0.06
2444 H 17.930085918907224 26.816699154667475 59.81574639760214 H 0.0 **** 0.06
2445 H 16.939923726129024 28.289172697711848 59.953527785406465 H 0.0 **** 0.06
2446 C 26.485872097676122 93.10302243283098 22.949527427788524 C 0.0 **** -0.24
2447 H 27.062794170611767 93.50002455915518 23.78494511865381 H 0.0 **** 0.06
2448 H 25.614023508150822 92.57111459034189 23.33102655075966 H 0.0 **** 0.06
2449 H 27.106814708569857 92.4171218487349 22.37245361534164 H 0.0 **** 0.06
2450 H 26.160880060362302 93.92380277160163 22.310659488027937 H 0.0 **** 0.06
2451 C 3.4674558821725725 50.639768257883134 35.84331100597001 C 0.0 **** -0.24
2452 H 3.122001200867089 51.410879488276834 35.15460786804874 H 0.0 **** 0.06
2453 H 3.609790796079807 51.07400659908876 36.83345310009591 H 0.0 **** 0.06
2454 H 4.413176117393448 50.23070484306615 35.4861459247455 H 0.0 **** 0.06
2455 H 2.7257152291013824 49.843460883792716 35.89852691106765 H 0.0 **** 0.06
2456 C 15.674704216349767 99.82658012602663 79.6913043202818 C 0.0 **** -0.24
2457 H 14.854824195020484 99.74601014420936 78.97826740458946 H 0.0 **** 0.06
2458 H 15.272335912814839 99.87941676566074 80.70266403671798 H 0.0 **** 0.06
2459 H 16.250958362541525 100.72763032799398 79.48132537055433 H 0.0 **** 0.06
2460 H 16.320755779297343 98.95256314301459 79.60083754339348 H 0.0 **** 0.06
2461 C 42.05819515576704 41.68729963979214 69.19122143682108 C 0.0 **** -0.24
2462 H 42.79193420218462 41.37313762213464 69.9341189778522 H 0.0 **** 0.06
2463 H 42.572816071605274 41.994358968521574 68.2799501098016 H 0.0 **** 0.06
2464 H 41.48166648868144 42.52606615473933 69.5836013526375 H 0.0 **** 0.06
2465 H 41.38752556625914 40.85759816063306 68.96916470133404 H 0.0 **** 0.06
2466 C 90.90119724039444 1.1846858073825963 113.88181132492464 C 0.0 **** -0.24
2467 H 90.16194851639493 0.4677838266934504 114.23994869689467 H 0.0 **** 0.06
2468 H 91.87487529248216 0.9472546570148559 114.31038216968297 H 0.0 **** 0.06
2469 H 90.60710145751372 2.190124962234499 114.18121103537088 H 0.0 **** 0.06
2470 H 90.95977549666955 1.1312378465069273 112.79454944701818 H 0.0 **** 0.06
2471 C 55.65011119166675 1.4708197375270444 56.7385571614017 C 0.0 **** -0.24
2472 H 56.3088333871701 1.1924328493260674 55.9154889252213 H 0.0 **** 0.06
2473 H 55.32159922126462 0.5716217687780514 57.2600994792123 H 0.0 **** 0.06
2474 H 54.78360855062837 2.002148903854234 56.34580543326544 H 0.0 **** 0.06
2475 H 56.189075676340764 2.116643910204804 57.43201365717769 H 0.0 **** 0.06
2476 C 118.68822528122162 73.02051842917865 36.26519112714135 C 0.0 **** -0.24
2477 H 118.99539865467993 71.98321652420736 36.13318836983166 H 0.0 **** 0.06
2478 H 117.60795235887993 73.09764063919536 36.143080384707126 H 0.0 **** 0.06
2479 H 119.18449499715075 73.64314947393935 35.52109745408437 H 0.0 **** 0.06
2480 H 118.96686333341165 73.35689753891289 37.26400062714121 H 0.0 **** 0.06
2481 C 114.9049188264425 117.9286424814209 5.8348669173052485 C 0.0 **** -0.24
2482 H 115.52497033927602 117.38734378321945 6.549242374269568 H 0.0 **** 0.06
2483 H 115.41942836567824 118.83878106785357 5.5237073805367345 H 0.0 **** 0.06
2484 H 113.95505381939665 118.18969791913047 6.301576679986567 H 0.0 **** 0.06
2485 H 114.72109834419223 117.29887162926518 4.9644743810725345 H 0.0 **** 0.06
2486 C 109.85047436112455 52.63045734674387 48.26950449457345 C 0.0 **** -0.24
2487 H 110.36517292190294 52.04330355543175 47.50824018617854 H 0.0 **** 0.06
2488 H 110.11670288959047 52.25505566823634 49.25816646138544 H 0.0 **** 0.06
2489 H 108.77304617605836 52.54720957553866 48.12552252624415 H 0.0 **** 0.06
2490 H 110.14869912277214 53.675473104055214 48.18453665075043 H 0.0 **** 0.06
2491 C 73.57255217421925 121.65380384423302 32.219151364543535 C 0.0 **** -0.24
2492 H 72.86997198360541 122.44784559122586 31.964751500684315 H 0.0 **** 0.06
2493 H 73.92812153585089 121.17809356524765 31.304961750793126 H 0.0 **** 0.06
2494 H 73.07259616198246 120.91306507362873 32.8437933177988 H 0.0 **** 0.06
2495 H 74.41760223405777 122.07706007118901 32.761831761332246 H 0.0 **** 0.06
2496 C 21.573360197658786 28.006591168499398 29.81348681592729 C 0.0 **** -0.24
2497 H 21.10569248608951 27.301685686110346 29.126762277733178 H 0.0 **** 0.06
2498 H 20.852322104862935 28.304248641340195 30.57556531056079 H 0.0 **** 0.06
2499 H 21.90444553984399 28.886064278123058 29.26137722098545 H 0.0 **** 0.06
2500 H 22.431469737525788 27.53266335578158 30.291170784366102 H 0.0 **** 0.06
2501 C 14.39322449566555 83.4936259764244 3.315104110909232 C 0.0 **** -0.24
2502 H 15.070834835760252 84.22320964493579 2.870933645091128 H 0.0 **** 0.06
2503 H 13.369444697307955 83.86300924098333 3.2496637571850613 H 0.0 **** 0.06
2504 H 14.6584044699417 83.34140113128578 4.361292737246487 H 0.0 **** 0.06
2505 H 14.473736710489106 82.54902635993673 2.7789532818707983 H 0.0 **** 0.06
2506 C 109.95192110564884 103.04069163182169 101.22036751439822 C 0.0 **** -0.24
2507 H 109.1393423434299 102.31456256841665 101.25371176853844 H 0.0 **** 0.06
2508 H 110.14133777563374 103.4195764411462 102.22483160614058 H 0.0 **** 0.06
2509 H 109.67339470872174 103.86699702707563 100.56587997157314 H 0.0 **** 0.06
2510 H 110.85121039003265 102.55986549067558 100.83668741330892 H 0.0 **** 0.06
2511 C 111.82379135382016 40.7036115918404 26.08327858936353 C 0.0 **** -0.24
2512 H 111.22980944147477 39.908698287012655 25.632335364099006 H 0.0 **** 0.06
2513 H 111.25190911462605 41.63161363188608 26.07804438643126 H 0.0 **** 0.06
2514 H 112.7418198344266 40.83883473074022 25.51210275264664 H 0.0 **** 0.06
2515 H 112.07076538516918 40.434257744328995 27.11021714887257 H 0.0 **** 0.06
2516 C 128.53404967873493 56.82069057263436 89.29713724585571 C 0.0 **** -0.24
2517 H 127.98306282173472 56.51540482493036 88.40782147458512 H 0.0 **** 0.06
2518 H 129.5315477641502 57.15431519270027 89.01023015065027 H 0.0 **** 0.06
2519 H 128.61560101017966 55.976605228529536 89.98224001471732 H 0.0 **** 0.06
2520 H 128.00547883580293 57.63841545509081 89.78916718912369 H 0.0 **** 0.06
2521 C 3.983966669991503 56.49311363682452 9.21514534669737 C 0.0 **** -0.24
2522 H 3.159480506613079 56.36481737696485 8.513929904275415 H 0.0 **** 0.06
2523 H 4.894217727246769 56.07321102414949 8.786142638151205 H 0.0 **** 0.06
2524 H 3.7508105337691973 55.97926300884973 10.148013101719158 H 0.0 **** 0.06
2525 H 4.130465553647639 57.55510557370869 9.412048039228495 H 0.0 **** 0.06
2526 C 39.6145354017207 24.803081407161805 103.04882687566194 C 0.0 **** -0.24
2527 H 40.424003186260705 24.440785371539477 102.41587987712185 H 0.0 **** 0.06
2528 H 38.7786375559891 24.104435623047387 103.00467523441597 H 0.0 **** 0.06
2529 H 39.289042373192736 25.782151677649324 102.69789505935064 H 0.0 **** 0.06
2530 H 39.967142539476896 24.88422720718617 104.07693096799609 H 0.0 **** 0.06
2531 C 23.25020505447071 1.2476409408205882 19.632210176663918 C 0.0 **** -0.24
2532 H 24.132791480795476 1.0864404462650725 20.24996496966775 H 0.0 **** 0.06
2533 H 23.322054324436905 0.6395919237127998 18.730039691813587 H 0.0 **** 0.06
2534 H 23.1870587333284 2.3006972526765708 19.356796936162397 H 0.0 **** 0.06
2535 H 22.358915679322195 0.9638341406279949 20.1920391090119 H 0.0 **** 0.06
2536 C 67.62205444174371 60.81332993907128 12.757575295473913 C 0.0 **** -0.24
2537 H 68.05735634046161 61.619898709882904 12.167783355047192 H 0.0 **** 0.06
2538 H 66.68594987844624 60.493106616691506 12.298340245451982 H 0.0 **** 0.06
2539 H 67.42840220444818 61.16762268973912 13.769963520999966 H 0.0 **** 0.06
2540 H 68.31629377315367 59.97356166094674 12.792165390921326 H 0.0 **** 0.06
2541 C 53.363647790490944 118.33021808804162 58.95739650174113 C 0.0 **** -0.24
2542 H 54.057090541877415 119.1367994203934 59.198303643919274 H 0.0 **** 0.06
2543 H 53.01780508364405 118.44315027674776 57.93037821661886 H 0.0 **** 0.06
2544 H 52.511131618803034 118.37055861296932 59.63600709305585 H 0.0 **** 0.06
2545 H 53.87088668569547 117.37103848145924 59.067377083901675 H 0.0 **** 0.06
2546 C 123.0972430003574 10.895238249872136 93.94756099396218 C 0.0 **** -0.24
2547 H 123.64877316133413 11.816940369176052 94.13306613171326 H 0.0 **** 0.06
2548 H 123.32502931902923 10.532088154300652 92.94499083879836 H 0.0 **** 0.06
2549 H 122.0277049276076 11.089259437243697 94.02931408017088 H 0.0 **** 0.06
2550 H 123.38797543092127 10.143855263268023 94.68134890596562 H 0.0 **** 0.06
2551 C 116.71267693801647 70.27754060092036 47.851950251710484 C 0.0 **** -0.24
2552 H 115.83774236703053 69.66339700006529 47.6371441901839 H 0.0 **** 0.06
2553 H 116.74261286895924 71.12104507840814 47.16101204850692 H 0.0 **** 0.06
2554 H 117.61495086588985 69.67718051691384 47.73212937630494 H 0.0 **** 0.06
2555 H 116.65495784038714 70.64737406590933 48.875407214137894 H 0.0 **** 0.06
2556 C 49.95822913982077 11.39421471190704 36.77430268722181 C 0.0 **** -0.24
2557 H 49.62889735177774 10.486432159070489 37.280218590206644 H 0.0 **** 0.06
2558 H 49.76851027340631 11.3019189202532 35.7041345688409 H 0.0 **** 0.06
2559 H 51.024797953389495 11.537696739289316 36.943108084673014 H 0.0 **** 0.06
2560 H 49.409324163156455 12.248898421040593 37.168194154593685 H 0.0 **** 0.06
2561 C 83.34739117916627 55.22555227519527 99.04383034837173 C 0.0 **** -0.24
2562 H 83.03582210121223 56.024104520953045 98.37017649341948 H 0.0 **** 0.06
2563 H 84.36435429525594 55.41781835167923 99.38782355299787 H 0.0 **** 0.06
2564 H 83.31515897233979 54.27310373128789 98.5170446316788 H 0.0 **** 0.06
2565 H 82.67412833058668 55.190160447639585 99.9006261552473 H 0.0 **** 0.06
2566 C 115.59947247260806 129.60008626100395 70.28345920845476 C 0.0 **** -0.24
2567 H 115.70721605412967 130.6777087875876 70.40719475451417 H 0.0 **** 0.06
2568 H 114.57787533703967 129.3692743426803 69.97983167711266 H 0.0 **** 0.06
2569 H 115.82000904905618 129.10253310135224 71.22842587476947 H 0.0 **** 0.06
2570 H 116.29413685882642 129.25070261809017 69.51879523036504 H 0.0 **** 0.06
2571 C 83.27510660694819 49.87781324088439 98.69471937081897 C 0.0 **** -0.24
2572 H 82.84228931346064 48.95130786163685 99.07125145406768 H 0.0 **** 0.06
2573 H 82.56459691582391 50.69301103659092 98.83228031399112 H 0.0 **** 0.06
2574 H 83.5022792109258 49.768505603725316 97.63434212196523 H 0.0 **** 0.06
2575 H 84.19160594043224 50.098462873683104 99.2419416120621 H 0.0 **** 0.06
2576 C 48.48110758672278 73.26610176778266 96.46526107878745 C 0.0 **** -0.24
2577 H 47.761172407325255 73.33304332981969 97.28099672257409 H 0.0 **** 0.06
2578 H 49.252837869483386 72.53942154609297 96.72001727554232 H 0.0 **** 0.06
2579 H 48.938895709853355 74.24233439964301 96.3052130897793 H 0.0 **** 0.06
2580 H 47.97002904434711 72.95146790048256 95.55536892992856 H 0.0 **** 0.06
2581 C 121.43628205443707 84.59759842909386 117.67358228750004 C 0.0 **** -0.24
2582 H 121.89871577998605 85.58090460088744 117.58775401920718 H 0.0 **** 0.06
2583 H 120.35120932891454 84.7087244367813 117.71206389863323 H 0.0 **** 0.06
2584 H 121.78473368812337 84.1098236986434 118.58377277495518 H 0.0 **** 0.06
2585 H 121.70888942802958 83.99190394751125 116.80948283125497 H 0.0 **** 0.06
2586 C 92.12546141020792 69.50483777245603 37.20011129066975 C 0.0 **** -0.24
2587 H 91.88048321678738 68.44422117263389 37.21961580097707 H 0.0 **** 0.06
2588 H 91.30682109255511 70.07590847884507 37.64030994839587 H 0.0 **** 0.06
2589 H 92.27681942586182 69.82383491361969 36.16860361896214 H 0.0 **** 0.06
2590 H 93.03743031741965 69.67831942351398 37.77135580813264 H 0.0 **** 0.06
2591 C 128.36587382206417 51.98193411067206 105.09138643735658 C 0.0 **** -0.24
2592 H 128.13930559234424 52.93819401221509 105.56343551877941 H 0.0 **** 0.06
2593 H 129.16807205318938 52.11622375683805 104.36556292310713 H 0.0 **** 0.06
2594 H 127.47571660076868 51.607134120003764 104.58562701973398 H 0.0 **** 0.06
2595 H 128.67980036233635 51.26644886653179 105.85167485962856 H 0.0 **** 0.06
2596 C 52.22390931882926 91.17735951384543 49.218362460675536 C 0.0 **** -0.24
2597 H 52.372832532757926 90.09806616165878 49.17608661456512 H 0.0 **** 0.06
2598 H 51.326932593581745 91.39665608884246 49.79789180346057 H 0.0 **** 0.06
2599 H 52.10807094031992 91.5674063387284 48.20710313706118 H 0.0 **** 0.06
2600 H 53.08638168074154 91.64487214750136 49.692156471930645 H 0.0 **** 0.06
2601 C 40.19437254115337 44.25281807370101 8.0029271344427 C 0.0 **** -0.24
2602 H 41.209019082615725 44.18581772611975 7.610297764829767 H 0.0 **** 0.06
2603 H 39.73998201953475 45.189419927464826 7.676909042661123 H 0.0 **** 0.06
2604 H 40.22345622203039 44.22330223003678 9.09178450837635 H 0.0 **** 0.06
2605 H 39.60459286554823 43.41523813242571 7.631127163194691 H 0.0 **** 0.06
2606 C 43.255804620509025 130.4174009603922 80.78316874513686 C 0.0 **** -0.24
2607 H 42.68407291347148 129.8103894952175 81.48576425827989 H 0.0 **** 0.06
2608 H 43.55420880710483 129.80324830746778 79.93255601110215 H 0.0 **** 0.06
2609 H 44.14422138075406 130.80707278806008 81.27893071391327 H 0.0 **** 0.06
2610 H 42.64094809467247 131.24625126561702 80.4344410394846 H 0.0 **** 0.06
2611 C 122.02451168187311 27.177941882018615 40.659478637167865 C 0.0 **** -0.24
2612 H 122.88143317127313 27.725976709547325 41.050651021690896 H 0.0 **** 0.06
2613 H 121.11566844555125 27.757233756770432 40.827417492292795 H 0.0 **** 0.06
2614 H 121.94356766455118 26.218288972356305 41.1696852733138 H 0.0 **** 0.06
2615 H 122.15727703672604 27.011262848523046 39.59014006858865 H 0.0 **** 0.06
2616 C 17.80880698980897 30.45081942186048 106.78807463207029 C 0.0 **** -0.24
2617 H 18.39867640371142 30.472868375811856 105.87192597126877 H 0.0 **** 0.06
2618 H 18.42252209868215 30.790476701658122 107.62283759751297 H 0.0 **** 0.06
2619 H 17.46949370021335 29.43272107256439 106.976554500603 H 0.0 **** 0.06
2620 H 16.94643543123533 31.10751259632559 106.67983989777842 H 0.0 **** 0.06
2621 C 66.3342385597677 123.00964486854184 35.2795817616809 C 0.0 **** -0.24
2622 H 66.84369645563959 122.54486752072279 34.434918402491576 H 0.0 **** 0.06
2623 H 66.2178686937358 124.07623519534658 35.09064915792612 H 0.0 **** 0.06
2624 H 66.92420812517071 122.86309776921269 36.18469687412238 H 0.0 **** 0.06
2625 H 65.35296578879394 122.55307364673914 35.40772979999258 H 0.0 **** 0.06
2626 C 60.01523954772358 72.85325286294797 13.685146054756615 C 0.0 **** -0.24
2627 H 60.286651845501254 73.09538923742555 14.712354784301567 H 0.0 **** 0.06
2628 H 59.02303064003006 73.24904082632958 13.467842454018466 H 0.0 **** 0.06
2629 H 60.011105730285294 71.77053651709114 13.556205210890425 H 0.0 **** 0.06
2630 H 60.74056754827102 73.29745357217318 13.003480088074411 H 0.0 **** 0.06
2631 C 97.36977609866992 94.3573662862146 17.594515611324084 C 0.0 **** -0.24
2632 H 97.68628936838384 93.76377988845813 16.736658381197913 H 0.0 **** 0.06
2633 H 96.78685142021305 95.21154292533728 17.250147272455024 H 0.0 **** 0.06
2634 H 98.24880431796048 94.71045779367417 18.135159055578413 H 0.0 **** 0.06
2635 H 96.75881781944112 93.74258305668847 18.255907373442255 H 0.0 **** 0.06
2636 C 106.25608077845266 51.47494030375043 73.66829835009878 C 0.0 **** -0.24
2637 H 105.57026757103745 52.322252300032346 73.681977363047 H 0.0 **** 0.06
2638 H 106.59666293829662 51.29986127400201 72.64769529048573 H 0.0 **** 0.06
2639 H 105.74323017556242 50.58695814415188 74.03857992252262 H 0.0 **** 0.06
2640 H 107.11349005474574 51.69161376649967 74.30624228750702 H 0.0 **** 0.06
2641 C 101.69134694015642 69.82757617016078 11.340403180197882 C 0.0 **** -0.24
2642 H 100.96975996066794 69.16989648605677 10.857555339767657 H 0.0 **** 0.06
2643 H 101.1778911278249 70.46340018012872 12.062014887721404 H 0.0 **** 0.06
2644 H 102.1755470657553 70.44974219712647 10.586794382992537 H 0.0 **** 0.06
2645 H 102.44345287527221 69.22751819891408 11.853420342550436 H 0.0 **** 0.06
2646 C 119.27414325598482 50.52612898105434 14.89832997432157 C 0.0 **** -0.24
2647 H 119.36497827913269 51.552339733734186 15.254683693276377 H 0.0 **** 0.06
2648 H 118.21976506078985 50.26800593020519 14.79920083932251 H 0.0 **** 0.06
2649 H 119.74868035461216 49.85176288220072 15.611208911544708 H 0.0 **** 0.06
2650 H 119.76460806076199 50.43375752801052 13.929250893346477 H 0.0 **** 0.06
2651 C 49.58766636070223 42.99846081224953 19.002011907791314 C 0.0 **** -0.24
2652 H 48.62086542485875 43.17724209155486 19.471175632267716 H 0.0 **** 0.06
2653 H 49.60350488181918 41.99639347805933 18.572574242888095 H 0.0 **** 0.06
2654 H 50.37575468721104 43.085246383706505 19.74976955870528 H 0.0 **** 0.06
2655 H 49.75147886337601 43.73390425908903 18.214481680017343 H 0.0 **** 0.06
2656 C 90.79305247603762 40.42287825195637 106.12497973268253 C 0.0 **** -0.24
2657 H 90.24394698216793 40.65607293994485 107.03753378284239 H 0.0 **** 0.06
2658 H 90.2457400253503 39.67192161509108 105.5546888288568 H 0.0 **** 0.06
2659 H 91.77823786273521 40.03619881541869 106.38342928286256 H 0.0 **** 0.06
2660 H 90.90196270631 41.32681032478589 105.52609676259905 H 0.0 **** 0.06
2661 C 65.04856850541222 19.262605431019466 69.6671388745626 C 0.0 **** -0.24
2662 H 66.10187205851021 19.524535221698983 69.56553230521268 H 0.0 **** 0.06
2663 H 64.4685729323315 20.1630005972022 69.86963615868379 H 0.0 **** 0.06
2664 H 64.92669841768915 18.55826354777011 70.4899484851077 H 0.0 **** 0.06
2665 H 64.69773295685485 18.804325073504486 68.74219399462592 H 0.0 **** 0.06
2666 C 6.431366388935999 39.65719415222816 74.41649476606077 C 0.0 **** -0.24
2667 H 6.820847799209645 40.65690023525693 74.22302261636727 H 0.0 **** 0.06
2668 H 5.351356361248094 39.65268747373375 74.2632837970369 H 0.0 **** 0.06
2669 H 6.654014023982398 39.37421909436708 75.44516653132999 H 0.0 **** 0.06
2670 H 6.898340165003589 38.94644244713787 73.73459815941922 H 0.0 **** 0.06
2671 C 112.34669948712911 93.47338661682971 106.3167889875541 C 0.0 **** -0.24
2672 H 111.82404291704967 92.8919112508429 105.55667581737863 H 0.0 **** 0.06
2673 H 113.13880009241757 92.86717748493629 106.75625410085101 H 0.0 **** 0.06
2674 H 111.64280636613921 93.77063101351632 107.0937340800551 H 0.0 **** 0.06
2675 H 112.78028706899255 94.36281804303644 105.85869176707527 H 0.0 **** 0.06
2676 C 35.18922192672886 85.03631563638564 87.55133002317926 C 0.0 **** -0.24
2677 H 35.72503545568634 85.5238310709239 88.3655370057287 H 0.0 **** 0.06
2678 H 34.12896615298661 84.9765475998565 87.79960611105454 H 0.0 **** 0.06
2679 H 35.58595515299908 84.03200289878448 87.40560392476803 H 0.0 **** 0.06
2680 H 35.315912841309796 85.61385315748934 86.6347088428671 H 0.0 **** 0.06
2681 C 127.83443564010776 126.8744817964429 14.892732989189525 C 0.0 **** -0.24
2682 H 128.09164082218768 125.88264190047656 15.263443848717802 H 0.0 **** 0.06
2683 H 126.7494574163614 126.98021389771347 14.861355995547271 H 0.0 **** 0.06
2684 H 128.2420039530228 127.0047513273876 13.890155612048122 H 0.0 **** 0.06
2685 H 128.25516457976124 127.63008768113335 15.556795804327354 H 0.0 **** 0.06
2686 C 7.0177758242349455 13.244825301041914 89.69692193750168 C 0.0 **** -0.24
2687 H 8.038229294581498 13.349420391773407 89.3290333350574 H 0.0 **** 0.06
2688 H 6.894382307665751 12.261027319961869 90.15029382865006 H 0.0 **** 0.06
2689 H 6.319215134500155 13.353122049015411 88.86748826149372 H 0.0 **** 0.06
2690 H 6.818852819710031 14.01551387716745 90.44220394818663 H 0.0 **** 0.06
2691 C 33.637797489125816 99.40605269600013 114.78172392829184 C 0.0 **** -0.24
2692 H 34.12673837553294 100.04788667340006 115.51386965552331 H 0.0 **** 0.06
2693 H 34.02533588237142 99.62948529114004 113.78690815040106 H 0.0 **** 0.06
2694 H 32.56301153425151 99.58443343538454 114.80111184098884 H 0.0 **** 0.06
2695 H 33.83769712602192 98.36172462524104 115.02327419552945 H 0.0 **** 0.06
2696 C 9.095972602950301 76.38178465203168 11.752925152106172 C 0.0 **** -0.24
2697 H 10.172703635348128 76.2600852826381 11.873037783193524 H 0.0 **** 0.06
2698 H 8.584017654750998 75.5099533376852 12.161360961780076 H 0.0 **** 0.06
2699 H 8.857938557015128 76.4801955524897 10.693619918474838 H 0.0 **** 0.06
2700 H 8.770575775178898 77.27594409606553 12.283163943907368 H 0.0 **** 0.06
2701 C 118.95218274102928 13.967376278450342 25.75428281164011 C 0.0 **** -0.24
2702 H 119.94646140581182 13.854850324564119 26.187152706113523 H 0.0 **** 0.06
2703 H 118.61708763798791 13.00804268619703 25.359528686576482 H 0.0 **** 0.06
2704 H 118.98756583790393 14.699764054150442 24.948252657856926 H 0.0 **** 0.06
2705 H 118.25796039613607 14.3061110133448 26.52335406185051 H 0.0 **** 0.06
2706 C 101.49128355691775 126.44272887521346 95.9548980644651 C 0.0 **** -0.24
2707 H 100.68321842839097 126.53553555585073 96.68030630868783 H 0.0 **** 0.06
2708 H 101.76618472481834 127.43290615997205 95.58873160775944 H 0.0 **** 0.06
2709 H 101.16041116596574 125.82572817191705 95.11970105697793 H 0.0 **** 0.06
2710 H 102.35549732917018 125.97745185556056 96.4301678652495 H 0.0 **** 0.06
2711 C 53.14104150629689 55.97194274803343 37.661495405026784 C 0.0 **** -0.24
2712 H 54.07706087126971 56.410997366028454 37.31572050635671 H 0.0 **** 0.06
2713 H 52.53055008540923 56.743459210972986 38.13252208925661 H 0.0 **** 0.06
2714 H 53.35475909688796 55.18505295316908 38.384053117578134 H 0.0 **** 0.06
2715 H 52.603166168124716 55.55025059599549 36.811906465743306 H 0.0 **** 0.06
2716 C 54.42497077217325 83.54332792175146 118.50948543291543 C 0.0 **** -0.24
2717 H 55.480229179431035 83.53540643498188 118.78270773020512 H 0.0 **** 0.06
2718 H 54.21975024167503 84.40626177803162 117.87574954205309 H 0.0 **** 0.06
2719 H 53.81639039493365 83.60255088799383 119.41192105033662 H 0.0 **** 0.06
2720 H 54.18285632882902 82.6283978898666 117.96860549063518 H 0.0 **** 0.06
2721 C 24.940265225640687 24.297233915381227 69.49928948845658 C 0.0 **** -0.24
2722 H 24.738026116818446 24.20164734382257 70.56619531013357 H 0.0 **** 0.06
2723 H 24.22550808906943 24.99117424876951 69.05451017267055 H 0.0 **** 0.06
2724 H 24.84521046933355 23.321608937426504 69.02246145520962 H 0.0 **** 0.06
2725 H 25.95223435824007 24.67578591245335 69.35458516185028 H 0.0 **** 0.06
2726 C 10.210785468971636 13.541403595058938 70.27782732141662 C 0.0 **** -0.24
2727 H 10.265203693300975 14.57834767705448 70.60958944596585 H 0.0 **** 0.06
2728 H 10.653763531870482 12.893762822583213 71.0345864305497 H 0.0 **** 0.06
2729 H 10.755765559987822 13.430622119863827 69.34033084735121 H 0.0 **** 0.06
2730 H 9.167654233129298 13.263940382417786 70.12624612488811 H 0.0 **** 0.06
2731 C 65.88434837566236 130.0177195821887 23.61967612939725 C 0.0 **** -0.24
2732 H 66.71235800464957 129.86248562534655 22.929216247027313 H 0.0 **** 0.06
2733 H 65.16463197462987 129.2065036523685 23.51091273853575 H 0.0 **** 0.06
2734 H 65.39788840242731 130.96773118157668 23.395187361989827 H 0.0 **** 0.06
2735 H 66.26171730907345 130.03516503515868 24.641302636728412 H 0.0 **** 0.06
2736 C 84.54611825957292 80.31925106726194 30.282969035195293 C 0.0 **** -0.24
2737 H 85.35770440522421 80.60644761787746 30.952191412336504 H 0.0 **** 0.06
2738 H 84.22586157406906 81.18908313530761 29.70780001296862 H 0.0 **** 0.06
2739 H 83.70784194232016 79.94191143524112 30.869053598058514 H 0.0 **** 0.06
2740 H 84.89359058827714 79.54173271717515 29.602719330584137 H 0.0 **** 0.06
2741 C 11.160207384232535 50.57830486430649 58.34510796089364 C 0.0 **** -0.24
2742 H 11.42638310157383 51.60687242459434 58.098503387402815 H 0.0 **** 0.06
2743 H 10.076793720092617 50.46574885114758 58.30802116226474 H 0.0 **** 0.06
2744 H 11.516462160059287 50.342131244392476 59.34769262698572 H 0.0 **** 0.06
2745 H 11.620742562871062 49.901432586257 57.626283452385024 H 0.0 **** 0.06
2746 C 62.34672029724419 19.055433112213336 62.581260453904804 C 0.0 **** -0.24
2747 H 61.436723690981566 19.589700829369548 62.854179211152484 H 0.0 **** 0.06
2748 H 62.89031649329078 19.626737202356367 61.82791633919146 H 0.0 **** 0.06
2749 H 62.08700488005219 18.077516171491936 62.17825459584509 H 0.0 **** 0.06
2750 H 62.97217082684344 18.93051688981339 63.464931782916835 H 0.0 **** 0.06
2751 C 3.7709255425364177 101.5196467428076 48.74061832418704 C 0.0 **** -0.24
2752 H 4.262166350792768 101.82595369702454 49.66476931237085 H 0.0 **** 0.06
2753 H 3.6539602540582905 102.38489103797679 48.08748438238172 H 0.0 **** 0.06
2754 H 2.7893455948074006 101.1040094619351 48.9720703125229 H 0.0 **** 0.06
2755 H 4.376933971790265 100.76463388578537 48.240700541910286 H 0.0 **** 0.06
2756 C 21.191421945646944 113.99580897505086 13.796970600110939 C 0.0 **** -0.24
2757 H 22.075352124815836 113.78699675407154 14.398974189726005 H 0.0 **** 0.06
2758 H 20.802818105593403 113.06272511049048 13.38860306375787 H 0.0 **** 0.06
2759 H 21.45800981425957 114.66655745049741 12.980442684118827 H 0.0 **** 0.06
2760 H 20.4302911555992 114.46486270870071 14.419909557689948 H 0.0 **** 0.06
2761 C 85.83088254933571 92.44286224140956 57.52338830596689 C 0.0 **** -0.24
2762 H 86.70685249889343 92.50802532963834 58.168932185118734 H 0.0 **** 0.06
2763 H 85.14141788607736 91.69742816789248 57.92151149040237 H 0.0 **** 0.06
2764 H 86.13999491894535 92.15179140251853 56.519793893757694 H 0.0 **** 0.06
2765 H 85.3351454451857 93.41221045900257 57.484733963649504 H 0.0 **** 0.06
2766 C 84.73358684131786 48.38857383626174 102.3656046169142 C 0.0 **** -0.24
2767 H 84.0642069547966 48.00815044495741 101.59487119422579 H 0.0 **** 0.06
2768 H 84.76864726660308 47.68249553960101 103.19569841643391 H 0.0 **** 0.06
2769 H 84.36790426556398 49.351175488845826 102.72251603450513 H 0.0 **** 0.06
2770 H 85.73332865288496 48.51032030871312 101.94987571215268 H 0.0 **** 0.06
2771 C 95.62535761292781 105.31118120337825 92.67253912503283 C 0.0 **** -0.24
2772 H 95.2940929691876 106.33093985690459 92.86780170592824 H 0.0 **** 0.06
2773 H 96.52535531149209 105.33412575431234 92.05660141676557 H 0.0 **** 0.06
2774 H 94.84011980968342 104.76727557578917 92.14822844684724 H 0.0 **** 0.06
2775 H 95.8448491875829 104.8131204922991 93.61679249810959 H 0.0 **** 0.06
2776 C 58.36953892501771 48.87285894999653 26.555194574930738 C 0.0 **** -0.24
2777 H 58.655602952602806 48.07016724445069 27.235139343471417 H 0.0 **** 0.06
2778 H 57.3351776668261 49.159044533731674 26.747153163416073 H 0.0 **** 0.06
2779 H 58.46658702685153 48.528134537325116 25.526023462730677 H 0.0 **** 0.06
2780 H 59.01973432632383 49.73226217734759 26.713707698632305 H 0.0 **** 0.06
2781 C 88.18296198595894 116.78874407570729 48.25938299518336 C 0.0 **** -0.24
2782 H 88.51553103726611 115.88155580835715 47.75341182297868 H 0.0 **** 0.06
2783 H 87.46708975043795 116.52841055418207 49.039458572720605 H 0.0 **** 0.06
2784 H 87.70891314795588 117.45318681110786 47.537083881144355 H 0.0 **** 0.06
2785 H 89.04137370123372 117.29064582054102 48.70523432116815 H 0.0 **** 0.06
2786 C 88.92266889678832 33.96159790417366 28.013973031296516 C 0.0 **** -0.24
2787 H 88.2248811786697 33.61684039502859 27.25187727390874 H 0.0 **** 0.06
2788 H 89.6059293638434 34.69137860862196 27.577442582798554 H 0.0 **** 0.06
2789 H 89.49148129012833 33.11432948123192 28.396283272679618 H 0.0 **** 0.06
2790 H 88.368573520391 34.42551610205662 28.830695600422132 H 0.0 **** 0.06
2791 C 76.54710800637064 26.926557259629185 33.1002329137134 C 0.0 **** -0.24
2792 H 77.23814375442231 26.09144596664907 32.98074544432163 H 0.0 **** 0.06
2793 H 75.81757982981776 26.911478220427725 32.28984424678586 H 0.0 **** 0.06
2794 H 77.10176557447681 27.864602496658804 33.07397279019662 H 0.0 **** 0.06
2795 H 76.03014757389285 26.836616635547728 34.05623664328286 H 0.0 **** 0.06
2796 C 62.37401471802622 62.711275908295676 11.860049156839299 C 0.0 **** -0.24
2797 H 62.179905549106365 62.78170929857265 12.930172150210062 H 0.0 **** 0.06
2798 H 63.41283913629155 62.97622629913049 11.660505557773817 H 0.0 **** 0.06
2799 H 61.71514289009019 63.396751630161674 11.326301592925805 H 0.0 **** 0.06
2800 H 62.18755234925226 61.69226849940084 11.522785035497819 H 0.0 **** 0.06
2801 C 78.84483545062194 45.87887800849634 18.759586483023668 C 0.0 **** -0.24
2802 H 78.34277989898197 46.595950389776334 19.409471027152733 H 0.0 **** 0.06
2803 H 79.88109540502384 45.764227841208424 19.078511472173318 H 0.0 **** 0.06
2804 H 78.81875808896375 46.24018567660684 17.731243522745885 H 0.0 **** 0.06
2805 H 78.33692932191651 44.916548012680934 18.820115743313863 H 0.0 **** 0.06
2806 C 82.64652772481631 2.951909297101082 26.247953038971048 C 0.0 **** -0.24
2807 H 83.06583831055681 3.028940801459342 27.250963124603885 H 0.0 **** 0.06
2808 H 82.80691027610857 3.8882249415448342 25.713430895335804 H 0.0 **** 0.06
2809 H 81.57780217961445 2.7503766808125647 26.31576707371316 H 0.0 **** 0.06
2810 H 83.13616503716756 2.1388230618420323 25.71152077425674 H 0.0 **** 0.06
2811 C 18.82477052092983 113.37034958518191 9.73571166202311 C 0.0 **** -0.24
2812 H 17.917477823193252 112.90369070071048 10.120524561762902 H 0.0 **** 0.06
2813 H 18.895392581265185 114.3919253834691 10.113267026498825 H 0.0 **** 0.06
2814 H 18.79052073394729 113.38665463290991 8.646559448525448 H 0.0 **** 0.06
2815 H 19.693423250038137 112.80026942316007 10.06438092599564 H 0.0 **** 0.06
2816 C 42.29020671683576 84.85282479601219 125.67331054458532 C 0.0 **** -0.24
2817 H 42.761772706243896 84.17018026211144 126.38012694229192 H 0.0 **** 0.06
2818 H 42.30750756099645 85.86501473711495 126.07860146323347 H 0.0 **** 0.06
2819 H 41.25658842616769 84.5454773065393 125.50691236346694 H 0.0 **** 0.06
2820 H 42.83227744897967 84.82931124029274 124.72789005088327 H 0.0 **** 0.06
2821 C 30.625818456521046 61.658189152821876 6.110268942387993 C 0.0 **** -0.24
2822 H 30.1495622380846 62.454858541993104 5.537107991659589 H 0.0 **** 0.06
2823 H 30.473800286526483 60.705778035794395 5.603412992745941 H 0.0 **** 0.06
2824 H 30.18655332004417 61.61491631702191 7.106494833383508 H 0.0 **** 0.06
2825 H 31.69410169341012 61.8607492261477 6.193123449246947 H 0.0 **** 0.06
2826 C 104.82600840241102 7.963756892491375 58.98762769880716 C 0.0 **** -0.24
2827 H 105.74604925287419 8.478345850391491 59.26297920360969 H 0.0 **** 0.06
2828 H 104.2971041748965 7.6568533827953615 59.89065709789861 H 0.0 **** 0.06
2829 H 105.06571920622005 7.0840675393188235 58.39057089690027 H 0.0 **** 0.06
2830 H 104.19351049567814 8.635302750575221 58.40604615410916 H 0.0 **** 0.06
2831 C 69.6837018363936 51.949831318333395 30.438952673183024 C 0.0 **** -0.24
2832 H 69.33844231301661 52.98188816066374 30.372049417691898 H 0.0 **** 0.06
2833 H 69.65239648499336 51.622601631398254 31.47834922576044 H 0.0 **** 0.06
2834 H 70.70603842885896 51.88360024663422 30.067020159479796 H 0.0 **** 0.06
2835 H 69.03519606611118 51.31150113152597 29.837185755976833 H 0.0 **** 0.06
2836 C 63.21908157347954 38.783097220157856 120.90212338965762 C 0.0 **** -0.24
2837 H 63.263599278307595 37.80729376877588 121.3860203628193 H 0.0 **** 0.06
2838 H 63.66687957883289 39.532627800708894 121.5555630517612 H 0.0 **** 0.06
2839 H 62.17999612130831 39.04507328813537 120.70644674421612 H 0.0 **** 0.06
2840 H 63.76878323094354 38.746946064498616 119.96091474046602 H 0.0 **** 0.06
2841 C 33.5023082043092 21.459834595256496 124.52475040762765 C 0.0 **** -0.24
2842 H 33.77025984931021 22.25643134403282 123.83044858336999 H 0.0 **** 0.06
2843 H 32.551015994368925 21.02111829014632 124.22558065803368 H 0.0 **** 0.06
2844 H 33.41417830718939 21.870373928200536 125.53105607440841 H 0.0 **** 0.06
2845 H 34.277352878883335 20.69246611136981 124.51226354919362 H 0.0 **** 0.06
2846 C 101.95599707914067 55.22278163907873 48.6231563030545 C 0.0 **** -0.24
2847 H 102.29398837111768 55.22682686725264 47.58665207252267 H 0.0 **** 0.06
2848 H 101.5618723477458 54.23633832891127 48.87116005854149 H 0.0 **** 0.06
2849 H 101.17450311066813 55.970234272461155 48.753958136457825 H 0.0 **** 0.06
2850 H 102.79446267327734 55.45440211129254 49.27935736028739 H 0.0 **** 0.06
2851 C 98.43712096921163 33.64997748035307 101.37721521440955 C 0.0 **** -0.24
2852 H 98.6153760648775 33.01815405777015 102.24797799197648 H 0.0 **** 0.06
2853 H 98.29921320423887 34.68220856838772 101.69982477183942 H 0.0 **** 0.06
2854 H 97.54255381994281 33.307546772087846 100.85775948706413 H 0.0 **** 0.06
2855 H 99.29337991094505 33.59004297022085 100.70503370867257 H 0.0 **** 0.06
2856 C 78.42507486665892 13.575499590711871 74.28873193503784 C 0.0 **** -0.24
2857 H 77.66661964540438 13.709849541993265 73.51819499389106 H 0.0 **** 0.06
2858 H 79.33479052576021 14.101504472327434 73.99832569963658 H 0.0 **** 0.06
2859 H 78.6407269775811 12.513014977884751 74.40521425768071 H 0.0 **** 0.06
2860 H 78.05810859321863 13.976647729798458 75.23300961999675 H 0.0 **** 0.06
2861 C 69.54501132327573 9.881517832694328 129.81016514817728 C 0.0 **** -0.24
2862 H 69.8587097823004 9.113719834973153 129.10204789024854 H 0.0 **** 0.06
2863 H 68.90007415665443 9.434250601122073 130.56739735595625 H 0.0 **** 0.06
2864 H 68.99768943628965 10.661602707721613 129.2808043813992 H 0.0 **** 0.06
2865 H 70.42290610108563 10.314554965507511 130.28907645616755 H 0.0 **** 0.06
2866 C 6.679228285679596 10.484907839871944 24.04576871061039 C 0.0 **** -0.24
2867 H 6.297935492717421 10.212888906604988 23.062016240626832 H 0.0 **** 0.06
2868 H 7.359662441449174 9.710078059791709 24.400022409103002 H 0.0 **** 0.06
2869 H 5.847108444233076 10.584426257630856 24.742866360269204 H 0.0 **** 0.06
2870 H 7.212228510928206 11.433883803083713 23.978709714842893 H 0.0 **** 0.06
2871 C 30.77617114998168 91.2043657336416 80.4599581823608 C 0.0 **** -0.24
2872 H 30.213353822538238 91.60492940045685 79.61751660670811 H 0.0 **** 0.06
2873 H 31.78861552641581 90.9587191183119 80.13647912246682 H 0.0 **** 0.06
2874 H 30.284795219701437 90.30385131529951 80.82966888123448 H 0.0 **** 0.06
2875 H 30.819269360710905 91.94735112033655 81.2555703120062 H 0.0 **** 0.06
2876 C 89.92034991046359 16.690611050282655 124.99978664986295 C 0.0 **** -0.24
2877 H 89.76891315164463 17.769167811715846 125.04346377640363 H 0.0 **** 0.06
2878 H 89.00150678514068 16.18318145516441 125.29293501471008 H 0.0 **** 0.06
2879 H 90.72408643796909 16.409281702512192 125.67919947420802 H 0.0 **** 0.06
2880 H 90.18638637479043 16.402762371764858 123.98215397082066 H 0.0 **** 0.06
2881 C 118.67876625827051 57.80220340019412 126.67937295697936 C 0.0 **** -0.24
2882 H 118.65495988562628 57.87022130856957 125.59198146213794 H 0.0 **** 0.06
2883 H 119.57220461175952 58.301737589222924 127.05566146661693 H 0.0 **** 0.06
2884 H 118.69571034629297 56.75321796742135 126.97667243909575 H 0.0 **** 0.06
2885 H 117.79219018940319 58.283636735562695 127.09317646006707 H 0.0 **** 0.06
2886 C 72.8920095033972 6.236513988801164 114.14989162430447 C 0.0 **** -0.24
2887 H 73.97118682930359 6.377231419276029 114.20921585899174 H 0.0 **** 0.06
2888 H 72.66490863617828 5.480822334013368 113.39874735103439 H 0.0 **** 0.06
2889 H 72.41805650280277 7.178433444314294 113.87261415115398 H 0.0 **** 0.06
2890 H 72.51381854880766 5.911298917745654 115.11999024237252 H 0.0 **** 0.06
2891 C 55.94753035337989 9.289162191317843 12.470245302883534 C 0.0 **** -0.24
2892 H 56.70734778507102 8.740149206917934 13.027220823941796 H 0.0 **** 0.06
2893 H 55.881230678746476 8.889625460187915 11.458318814108406 H 0.0 **** 0.06
2894 H 56.22055877541354 10.343690457620653 12.42819652871513 H 0.0 **** 0.06
2895 H 54.98387630237271 9.182254642642619 12.968576650372377 H 0.0 **** 0.06
2896 C 36.99629988217728 83.02265663767457 29.3177018476469 C 0.0 **** -0.24
2897 H 37.470296971135554 83.8234724703853 29.884983271426734 H 0.0 **** 0.06
2898 H 36.926190567923 82.12937201857426 29.93978451199888 H 0.0 **** 0.06
2899 H 37.591704967311884 82.8032303268206 28.431927440284255 H 0.0 **** 0.06
2900 H 35.99685963005069 83.33469838269485 29.0158317417646 H 0.0 **** 0.06
2901 C 26.44138666823895 41.53722085397058 7.411399173353374 C 0.0 **** -0.24
2902 H 26.259430928363344 42.22903795695609 6.589211449948465 H 0.0 **** 0.06
2903 H 25.67212062788829 40.76431412287113 7.413738623969721 H 0.0 **** 0.06
2904 H 26.415300937120804 42.080265489894 8.356386768174218 H 0.0 **** 0.06
2905 H 27.42057895012553 41.07370167059702 7.286223375251282 H 0.0 **** 0.06
2906 C 8.79320068855123 124.18783812052664 114.45574255765497 C 0.0 **** -0.24
2907 H 8.717669839892679 125.17672637886903 114.0028721498142 H 0.0 **** 0.06
2908 H 9.812841219024019 124.02520515969923 114.80497053028283 H 0.0 **** 0.06
2909 H 8.535441299996833 123.42962379659843 113.71669819267352 H 0.0 **** 0.06
2910 H 8.105437795084939 124.1217981075273 115.29839690668898 H 0.0 **** 0.06
2911 C 47.38677093680536 84.62343323948375 91.961575618866 C 0.0 **** -0.24
2912 H 48.06707698677968 85.01636756260092 91.20681294267827 H 0.0 **** 0.06
2913 H 46.623156619553214 84.01205644617039 91.47977886516792 H 0.0 **** 0.06
2914 H 46.91043234363599 85.45089569030944 92.48744623837307 H 0.0 **** 0.06
2915 H 47.945009851557984 84.01454209819713 92.67222977029327 H 0.0 **** 0.06
2916 C 48.57593554182884 124.4785239916994 15.845776438780206 C 0.0 **** -0.24
2917 H 47.66613572798681 124.27789068445031 16.41283121996156 H 0.0 **** 0.06
2918 H 49.416346934730896 123.96627423966916 16.315044375775017 H 0.0 **** 0.06
2919 H 48.765309241381686 125.55126087692994 15.830105516127617 H 0.0 **** 0.06
2920 H 48.45266750836521 124.11617669692666 14.825040471072441 H 0.0 **** 0.06
2921 C 23.160791015285824 119.05884840042668 7.052534858189148 C 0.0 **** -0.24
2922 H 22.079764102176824 119.03632937614776 7.1957768304046965 H 0.0 **** 0.06
2923 H 23.46405273891095 118.20370593875109 6.449443569327457 H 0.0 **** 0.06
2924 H 23.655776588632605 119.01551942497792 8.02252214302817 H 0.0 **** 0.06
2925 H 23.440444256566707 119.98121261436307 6.542979346539909 H 0.0 **** 0.06
2926 C 29.530248954813885 95.03140116942008 84.53669073138721 C 0.0 **** -0.24
2927 H 29.628293738811465 95.98312329505035 84.01428504959753 H 0.0 **** 0.06
2928 H 29.50421344747693 94.21994321972595 83.80981688849664 H 0.0 **** 0.06
2929 H 28.60816780117949 95.02933772344619 85.11773164529185 H 0.0 **** 0.06
2930 H 30.381278159068756 94.8947317535437 85.20361067564181 H 0.0 **** 0.06
2931 C 23.163748207168084 34.538659307575244 68.78905031462398 C 0.0 **** -0.24
2932 H 22.161048030499103 34.95559191361599 68.69629788669039 H 0.0 **** 0.06
2933 H 23.72152550622033 35.096908729750965 69.54049325924404 H 0.0 **** 0.06
2934 H 23.676133461174885 34.609478349211884 67.82895784343691 H 0.0 **** 0.06
2935 H 23.09597919134194 33.493265815281234 69.08809915258234 H 0.0 **** 0.06
2936 C 15.126563708338534 25.040914201100804 124.50847728314872 C 0.0 **** -0.24
2937 H 16.17734107493071 25.098625320047546 124.79405016936096 H 0.0 **** 0.06
2938 H 14.827663781378849 25.975978482170632 124.03328345793767 H 0.0 **** 0.06
2939 H 14.517944462510098 24.872855631410303 125.39657995762263 H 0.0 **** 0.06
2940 H 14.98572681311315 24.216391405585384 123.80967932088856 H 0.0 **** 0.06
2941 C 98.5741945118284 46.803101346392225 76.22881677511488 C 0.0 **** -0.24
2942 H 98.31828412044683 47.84041558392812 76.01282020716847 H 0.0 **** 0.06
2943 H 98.92924026382721 46.319691396016026 75.31903945823444 H 0.0 **** 0.06
2944 H 97.69234603646 46.28022790059674 76.59929633912544 H 0.0 **** 0.06
2945 H 99.35917003892355 46.77396801455063 76.98592261998208 H 0.0 **** 0.06
2946 C 112.4717370307738 86.17312257780782 82.92453369362278 C 0.0 **** -0.24
2947 H 113.50923403321792 86.24622846576699 83.2487849858538 H 0.0 **** 0.06
2948 H 111.81253601979074 86.42419554153213 83.75601845662268 H 0.0 **** 0.06
2949 H 112.26692460492 85.15494093220352 82.5926684888623 H 0.0 **** 0.06
2950 H 112.29837262803869 86.86540970015307 82.10086885068225 H 0.0 **** 0.06
2951 C 82.77889368986958 91.88590914067629 121.59264134062099 C 0.0 **** -0.24
2952 H 82.25874316728117 91.60793903455178 122.50975287647802 H 0.0 **** 0.06
2953 H 82.05402700461639 92.00758612064024 120.78722311546463 H 0.0 **** 0.06
2954 H 83.49006505159365 91.10354616757789 121.32717579693559 H 0.0 **** 0.06
2955 H 83.31149569683615 92.82464734300797 121.74761619204037 H 0.0 **** 0.06
2956 C 8.433806200319225 100.80807042450277 4.428988751459528 C 0.0 **** -0.24
2957 H 9.049229832423748 100.19738494210984 3.767794750652744 H 0.0 **** 0.06
2958 H 9.04804984780111 101.19377515171965 5.242379217499344 H 0.0 **** 0.06
2959 H 7.627687592981687 100.19967879387053 4.838386913144856 H 0.0 **** 0.06
2960 H 8.010614823450169 101.63964481123628 3.8652400616516793 H 0.0 **** 0.06
2961 C 105.79462394609148 65.27096432629895 26.144478402667005 C 0.0 **** -0.24
2962 H 106.79947169159668 65.35568285349507 25.72982036249857 H 0.0 **** 0.06
2963 H 105.23351541014797 66.17890147566362 25.924433439237504 H 0.0 **** 0.06
2964 H 105.85837477417853 65.13506760239574 27.224922978825646 H 0.0 **** 0.06
2965 H 105.28923233258632 64.41416253949279 25.6995082321381 H 0.0 **** 0.06
2966 C 17.438653782619497 57.38254223137153 72.55218390035384 C 0.0 **** -0.24
2967 H 16.36815545950583 57.43879049572516 72.74714514982668 H 0.0 **** 0.06
2968 H 17.617483950877613 56.74994011084763 71.68233400700615 H 0.0 **** 0.06
2969 H 17.943934034854067 56.95976441574609 73.42013102698559 H 0.0 **** 0.06
2970 H 17.825379716808868 58.38377425828864 72.35843656146642 H 0.0 **** 0.06
2971 C 44.02946465605697 82.87111468037911 19.62916036810921 C 0.0 **** -0.24
2972 H 43.880445537453454 81.80509734201024 19.457358718041974 H 0.0 **** 0.06
2973 H 43.11859022388029 83.41067993931313 19.36736342352569 H 0.0 **** 0.06
2974 H 44.85358375922175 83.22758380967585 19.011107020426692 H 0.0 **** 0.06
2975 H 44.26290827046364 83.04097088618651 20.680069687979255 H 0.0 **** 0.06
2976 C 79.57383195449881 120.6451290013916 60.77894793472291 C 0.0 **** -0.24
2977 H 80.02529161053323 121.60788005806108 61.01682816968824 H 0.0 **** 0.06
2978 H 80.02470451704818 120.2468303202001 59.86978261129518 H 0.0 **** 0.06
2979 H 78.50191196751936 120.77408682562958 60.62646864126758 H 0.0 **** 0.06
2980 H 79.74231414023205 119.95228131166702 61.60339156724571 H 0.0 **** 0.06
2981 C 29.41861419084421 106.24505348350942 98.73033278757435 C 0.0 **** -0.24
2982 H 30.252578287166386 106.87932038485741 99.03250642860274 H 0.0 **** 0.06
2983 H 28.708317860568698 106.16231192121649 99.55361675199964 H 0.0 **** 0.06
2984 H 29.792416166411527 105.25430306274097 98.47126875166902 H 0.0 **** 0.06
2985 H 28.922930759090086 106.68542263638614 97.86464666272616 H 0.0 **** 0.06
2986 C 60.19076962989209 46.84701375026885 9.2678715029719 C 0.0 **** -0.24
2987 H 60.96928138624912 47.32335075120604 9.862657095090242 H 0.0 **** 0.06
2988 H 60.58117841411661 46.6146644688901 8.276661481304927 H 0.0 **** 0.06
2989 H 59.340652345718865 47.52404207505482 9.174421970154697 H 0.0 **** 0.06
2990 H 59.869647267939854 45.92788004380477 9.757464294351223 H 0.0 **** 0.06
2991 C 25.739374740035885 95.88662147021519 97.23877758992862 C 0.0 **** -0.24
2992 H 26.078146299203695 95.29147042244692 96.3900882506625 H 0.0 **** 0.06
2993 H 26.601092769750323 96.20461367092945 97.82539539577513 H 0.0 **** 0.06
2994 H 25.076981519595506 95.28574427520343 97.86149523004669 H 0.0 **** 0.06
2995 H 25.202768916131674 96.76307054254299 96.87606743197769 H 0.0 **** 0.06
2996 C 13.717714734205657 97.22623960648227 11.282187619123139 C 0.0 **** -0.24
2997 H 14.162504584903644 96.23782897717243 11.164484956763758 H 0.0 **** 0.06
2998 H 14.356099638109015 97.83718479641865 11.921455352192833 H 0.0 **** 0.06
2999 H 12.732746705276412 97.12861932090365 11.737888935433993 H 0.0 **** 0.06
3000 H 13.622029432701567 97.69945447479535 10.304543243882772 H 0.0 **** 0.06
3001 C 61.45231375686856 107.03298706404652 15.38348581554023 C 0.0 **** -0.24
3002 H 61.724392996353075 108.08623348710307 15.325569915528355 H 0.0 **** 0.06
3003 H 60.5946469598409 106.8429714587931 14.737507291015888 H 0.0 **** 0.06
3004 H 61.19605195056009 106.77969293591772 16.412020413430835 H 0.0 **** 0.06
3005 H 62.294732825362786 106.42176493024229 15.058693386128724 H 0.0 **** 0.06
3006 C 53.66505840289467 75.51044304808629 24.76800752583958 C 0.0 **** -0.24
3007 H 54.73540610884399 75.71452168890715 24.722354074057478 H 0.0 **** 0.06
3008 H 53.46456470742041 74.80541468621688 25.574450784430326 H 0.0 **** 0.06
3009 H 53.33679023904705 75.0826981082455 23.820947483764883 H 0.0 **** 0.06
3010 H 53.12611024340585 76.43975384015432 24.953463244978167 H 0.0 **** 0.06
3011 C 51.37675673882944 19.53652786758107 92.79363114850048 C 0.0 **** -0.24
3012 H 51.2536237196021 20.479795851218938 92.26076035452502 H 0.0 **** 0.06
3013 H 52.039167310569454 18.88267283911665 92.22583687278822 H 0.0 **** 0.06
3014 H 50.40482814092495 19.057049584870697 92.91147793504567 H 0.0 **** 0.06
3015 H 51.80842984348483 19.72831603578905 93.77617433941418 H 0.0 **** 0.06
3016 C 24.45572342109665 91.87295369984847 10.413139455080508 C 0.0 **** -0.24
3017 H 25.503011601858134 91.93462386033309 10.709549219100715 H 0.0 **** 0.06
3018 H 23.821805962556027 91.96358829427191 11.294914067533849 H 0.0 **** 0.06
3019 H 24.2719098517357 90.9141319561933 9.928547980704046 H 0.0 **** 0.06
3020 H 24.228686296861866 92.68054570955681 9.716998108565662 H 0.0 **** 0.06
3021 C 59.7966329786276 40.46211405029899 125.51652362626956 C 0.0 **** -0.24
3022 H 59.65861895236847 40.846166493914694 124.50544877310227 H 0.0 **** 0.06
3023 H 58.830835728478405 40.41406746360394 126.02130651635973 H 0.0 **** 0.06
3024 H 60.463815026427454 41.12361273104176 126.06895739473279 H 0.0 **** 0.06
3025 H 60.231998067866584 39.46387261453714 125.46901831193789 H 0.0 **** 0.06
3026 C 0.8445373553760476 92.09505861879762 12.005159286664277 C 0.0 **** -0.24
3027 H 0.5166372208868779 92.77972041836816 12.787409372548396 H 0.0 **** 0.06
3028 H 1.8732915996039878 91.78982639212103 12.198170941668202 H 0.0 **** 0.06
3029 H 0.787190980599263 92.5942299393941 11.038477958490013 H 0.0 **** 0.06
3030 H 0.19955207942177822 91.2160192630742 11.999838528967125 H 0.0 **** 0.06
3031 C 72.43700309898986 49.67489409100472 129.334426700221 C 0.0 **** -0.24
3032 H 73.42720676619695 49.29666866989389 129.07991007793783 H 0.0 **** 0.06
3033 H 72.19648062141371 50.522519300593714 128.69363356183035 H 0.0 **** 0.06
3034 H 72.42768784266258 49.99331917113746 130.3776616977715 H 0.0 **** 0.06
3035 H 71.69885376927351 48.886942966011745 129.18851919261357 H 0.0 **** 0.06
3036 C 123.97967731778074 34.467142152266625 0.33644821578832307 C 0.0 **** -0.24
3037 H 123.99669990383282 34.24119327036594 1.4027698463299885 H 0.0 **** 0.06
3038 H 124.46041794122958 33.65715237963234 -0.21357049397664696 H 0.0 **** 0.06
3039 H 124.51496506092874 35.39895220054648 0.15413109576201123 H 0.0 **** 0.06
3040 H 122.94690476175077 34.57013100739209 0.004366028031995484 H 0.0 **** 0.06
3041 C 42.99731986889257 61.515359161155885 59.059651782304 C 0.0 **** -0.24
3042 H 42.22195490551216 61.22234940731107 59.76713103833306 H 0.0 **** 0.06
3043 H 43.28482676037162 62.55058051137681 59.24285932089147 H 0.0 **** 0.06
3044 H 42.617361313000686 61.41731181408032 58.04246216665575 H 0.0 **** 0.06
3045 H 43.866207577943094 60.86899780184142 59.18631531494691 H 0.0 **** 0.06
3046 C 26.41035558138043 44.43271721799465 16.19668744968847 C 0.0 **** -0.24
3047 H 26.51117471895192 43.83376459840488 17.101662432029528 H 0.0 **** 0.06
3048 H 25.360931265249747 44.47762186049809 15.905990646781333 H 0.0 **** 0.06
3049 H 26.991646585728105 43.97824739109632 15.394038431073028 H 0.0 **** 0.06
3050 H 26.77986202985238 45.44141123778142 16.38546222117165 H 0.0 **** 0.06
3051 C 90.84216929950354 72.52709994133743 20.507874410855436 C 0.0 **** -0.24
3052 H 90.95128880681096 73.30041733522351 19.74710726898155 H 0.0 **** 0.06
3053 H 91.81518854359771 72.31102363966289 20.94803006652063 H 0.0 **** 0.06
3054 H 90.440017458737 71.62238221344201 20.05055256453528 H 0.0 **** 0.06
3055 H 90.16047482649947 72.87606766580863 21.28360287502636 H 0.0 **** 0.06
3056 C 34.83973653773407 27.887300021382856 119.05258805928324 C 0.0 **** -0.24
3057 H 35.802315978201904 27.429615498837066 119.28131755496184 H 0.0 **** 0.06
3058 H 34.04125115433854 27.301523320488258 119.50866618134177 H 0.0 **** 0.06
3059 H 34.698785873302114 27.91429027275629 117.97224696246381 H 0.0 **** 0.06
3060 H 34.81732457681642 28.902661621138492 119.44763737660729 H 0.0 **** 0.06
3061 C 84.96407624964291 1.1167491083569416 81.86004218676982 C 0.0 **** -0.24
3062 H 85.99655172939151 1.3100945186038473 81.57024852804324 H 0.0 **** 0.06
3063 H 84.8150025195868 1.4207186028378374 82.89610783926747 H 0.0 **** 0.06
3064 H 84.75208867993324 0.05171553439566878 81.75936300682616 H 0.0 **** 0.06
3065 H 84.29360140843805 1.6834444218661133 81.2147148868217 H 0.0 **** 0.06
3066 C 0.2385093481834133 37.23676859454329 48.08722656770682 C 0.0 **** -0.24
3067 H 0.322899015413725 36.43892633216919 47.34881839883817 H 0.0 **** 0.06
3068 H 0.05274587728968072 38.18296159270767 47.578991177166806 H 0.0 **** 0.06
3069 H 1.1657548656321524 37.304452295189435 48.655527626611516 H 0.0 **** 0.06
3070 H -0.5875221927576604 37.019208464371104 48.76394210980581 H 0.0 **** 0.06
3071 C 106.59165544201545 31.600643457844818 66.3936244261036 C 0.0 **** -0.24
3072 H 107.65648326756936 31.833006577773162 66.41013361292161 H 0.0 **** 0.06
3073 H 106.21990992550965 31.675608324880372 65.37145318806773 H 0.0 **** 0.06
3074 H 106.05637123660854 32.305784303018676 67.02870443706655 H 0.0 **** 0.06
3075 H 106.43593421612707 30.58756743126292 66.76364239769907 H 0.0 **** 0.06
3076 C 68.57040530336275 9.422741385696199 89.4926266633766 C 0.0 **** -0.24
3077 H 68.85886033459133 10.421526950902859 89.16376559003575 H 0.0 **** 0.06
3078 H 67.87878852342578 9.501634529883333 90.3317414368111 H 0.0 **** 0.06
3079 H 69.45796116004729 8.871947474264843 89.80369759806638 H 0.0 **** 0.06
3080 H 68.08589619598752 8.896188253942569 88.67036563732135 H 0.0 **** 0.06
3081 C 77.71237875531617 98.7323137065286 77.35343331527332 C 0.0 **** -0.24
3082 H 78.16910249725615 97.74534948035995 77.28089021532992 H 0.0 **** 0.06
3083 H 77.97963727258977 99.18579302097811 78.30783881505678 H 0.0 **** 0.06
3084 H 76.62871918768747 98.63689795365724 77.2860668748401 H 0.0 **** 0.06
3085 H 78.07348037218352 99.35923104624015 76.53874215455765 H 0.0 **** 0.06
3086 C 109.19109618575867 88.32503215251045 119.45074964120771 C 0.0 **** -0.24
3087 H 108.76333506630188 89.0218819874456 118.72908263108586 H 0.0 **** 0.06
3088 H 109.59971282198451 87.46269130767963 118.92462024369571 H 0.0 **** 0.06
3089 H 108.41458772022747 87.99628193713194 120.1416399245008 H 0.0 **** 0.06
3090 H 109.98533300612732 88.82191669488145 120.00756655432798 H 0.0 **** 0.06
3091 C 39.88023843839076 70.32265498475468 57.42109300159741 C 0.0 **** -0.24
3092 H 39.76399406857277 71.35935695977165 57.737128970072206 H 0.0 **** 0.06
3093 H 39.00374025910773 70.0184690301277 56.846924517986125 H 0.0 **** 0.06
3094 H 39.979837024995874 69.68409932060479 58.29895362078926 H 0.0 **** 0.06
3095 H 40.771503754507734 70.22981253491449 56.80025976915144 H 0.0 **** 0.06
3096 C 36.547972986125416 57.20658894275215 60.9530565849618 C 0.0 **** -0.24
3097 H 35.838677327535095 57.94233972855457 61.33274322800604 H 0.0 **** 0.06
3098 H 37.511187946638216 57.34375230337707 61.44483055824281 H 0.0 **** 0.06
3099 H 36.66679028939777 57.338274578829214 59.87680758743912 H 0.0 **** 0.06
3100 H 36.17428746156858 56.203978004301035 61.15746505680181 H 0.0 **** 0.06
3101 C 51.000670159206805 32.82473612201471 67.31559392105969 C 0.0 **** -0.24
3102 H 50.84274830371791 32.00265397303605 66.61775864190058 H 0.0 **** 0.06
3103 H 50.9732577318309 32.44310904116193 68.33665995613096 H 0.0 **** 0.06
3104 H 50.21610365738047 33.5691926068487 67.1845658692269 H 0.0 **** 0.06
3105 H 51.97142379224951 33.28187544550502 67.12428923419522 H 0.0 **** 0.06
3106 C 49.71573310956819 70.66211493834811 39.301926503006825 C 0.0 **** -0.24
3107 H 49.179899962834384 71.34504745909271 38.64293677420872 H 0.0 **** 0.06
3108 H 49.59577323332857 69.63990012828623 38.94007694877189 H 0.0 **** 0.06
3109 H 49.312291279691124 70.74098033567356 40.31127054223518 H 0.0 **** 0.06
3110 H 50.77416814543011 70.92202811192675 39.31197028947733 H 0.0 **** 0.06
3111 C 26.94774098865726 30.9334720216724 64.66168396698887 C 0.0 **** -0.24
3112 H 27.622806516526303 31.514796053763234 64.03506584429968 H 0.0 **** 0.06
3113 H 25.97260081218836 31.421459894474765 64.69450246882296 H 0.0 **** 0.06
3114 H 27.354692362405196 30.865716347472244 65.67054729382839 H 0.0 **** 0.06
3115 H 26.83846739557554 29.93161919952263 64.24621112372755 H 0.0 **** 0.06
3116 C 108.2781452160357 57.72301132400196 1.5711391689526124 C 0.0 **** -0.24
3117 H 107.65315062930749 56.94133023303982 2.0044796613784683 H 0.0 **** 0.06
3118 H 107.65027297906425 58.437578378756825 1.0398240145594855 H 0.0 **** 0.06
3119 H 108.98898514175887 57.27510856955922 0.8760526667597048 H 0.0 **** 0.06
3120 H 108.82084228478662 58.23518853267274 2.3660680367041493 H 0.0 **** 0.06
3121 C 57.705713938297535 8.386039663468353 85.56707557037032 C 0.0 **** -0.24
3122 H 58.386675113429135 7.667789505359508 86.02378232738914 H 0.0 **** 0.06
3123 H 58.25824628574371 9.283358232671219 85.28732050704645 H 0.0 **** 0.06
3124 H 56.923721899477044 8.64811670128256 86.28036695279775 H 0.0 **** 0.06
3125 H 57.25346127217419 7.944927854431171 84.67916378768871 H 0.0 **** 0.06
3126 C 69.31872780218546 106.00849013469004 88.928715128086 C 0.0 **** -0.24
3127 H 68.71493564397574 106.71084725797472 89.50338544356299 H 0.0 **** 0.06
3128 H 69.85562558251254 105.3484120381177 89.61038086662478 H 0.0 **** 0.06
3129 H 70.03399303839345 106.55968300873337 88.31777031964381 H 0.0 **** 0.06
3130 H 68.6708494138538 105.41567235838663 88.28389803445677 H 0.0 **** 0.06
3131 C 13.312237623953912 91.08087829531235 2.2443664582431317 C 0.0 **** -0.24
3132 H 12.464950427818785 91.15727995051424 2.926098579946771 H 0.0 **** 0.06
3133 H 13.108543565942476 91.66466189662253 1.345536093800252 H 0.0 **** 0.06
3134 H 13.466842575310949 90.03692739582972 1.9726896890557022 H 0.0 **** 0.06
3135 H 14.206868903579625 91.46635396566532 2.732965299216577 H 0.0 **** 0.06
3136 C 45.983831478990396 32.065489698882466 42.61397086249286 C 0.0 **** -0.24
3137 H 45.70539693968118 32.57529454032955 43.53559151567857 H 0.0 **** 0.06
3138 H 45.64276601070374 31.030122904195537 42.654757148604716 H 0.0 **** 0.06
3139 H 47.06768690627324 32.086185970950055 42.50037268815415 H 0.0 **** 0.06
3140 H 45.51889890285915 32.5679880339491 41.76541289336662 H 0.0 **** 0.06
3141 C 127.37178136886683 27.95075881584802 36.27553252847173 C 0.0 **** -0.24
3142 H 126.29865665170092 27.991616674137788 36.46221527341015 H 0.0 **** 0.06
3143 H 127.63716675443607 26.96360608060911 35.897369160100936 H 0.0 **** 0.06
3144 H 127.90966494967103 28.140069417917914 37.20526060708738 H 0.0 **** 0.06
3145 H 127.64081680475539 28.707868841024435 35.539361500524535 H 0.0 **** 0.06
3146 C 94.02299574055863 123.32547706693987 88.41465308297498 C 0.0 **** -0.24
3147 H 94.41571890502061 123.4180644733157 87.40171991684369 H 0.0 **** 0.06
3148 H 93.64371163873082 124.29186611275924 88.74729593857799 H 0.0 **** 0.06
3149 H 94.81687934982389 122.9953501140867 89.08346725192573 H 0.0 **** 0.06
3150 H 93.2131026196677 122.5947311486967 88.42445676687774 H 0.0 **** 0.06
3151 C 113.23058007603277 46.09792475778822 53.97779057404679 C 0.0 **** -0.24
3152 H 114.18175449084504 45.91759793810992 54.4774833551802 H 0.0 **** 0.06
3153 H 112.96351248225943 47.1508392562225 54.07426074447727 H 0.0 **** 0.06
3154 H 112.45599429308476 45.4831193746041 54.43611433649967 H 0.0 **** 0.06
3155 H 113.32163637719185 45.84100650902914 52.9223445819713 H 0.0 **** 0.06
3156 C 84.79771903974132 29.195679779035004 89.63225078211659 C 0.0 **** -0.24
3157 H 85.58942940858984 29.803045947751684 89.19187754958583 H 0.0 **** 0.06
3158 H 84.76468420311518 29.366446729947086 90.7088244594157 H 0.0 **** 0.06
3159 H 84.99842765195301 28.141880315689377 89.4373912178797 H 0.0 **** 0.06
3160 H 83.84119912485983 29.47166435248448 89.19007598165481 H 0.0 **** 0.06
3161 C 109.41415755377761 50.89560282361343 3.4868047589745927 C 0.0 **** -0.24
3162 H 108.86369025953493 50.31834748055522 4.230056081038764 H 0.0 **** 0.06
3163 H 108.87535171019105 51.81791969054231 3.2718064350194958 H 0.0 **** 0.06
3164 H 109.5110824513114 50.31022487203795 2.571748607853653 H 0.0 **** 0.06
3165 H 110.40536578575102 51.133212281662324 3.8729970111346894 H 0.0 **** 0.06
3166 C 77.85237181536166 115.22701860162425 117.75666942646598 C 0.0 **** -0.24
3167 H 77.14671896616349 114.61102998753557 118.3141203709024 H 0.0 **** 0.06
3168 H 77.39848469801476 116.19436084166165 117.53948058788723 H 0.0 **** 0.06
3169 H 78.10904733717408 114.72808371989623 116.8218131981899 H 0.0 **** 0.06
3170 H 78.75487150526473 115.37328283702305 118.34949360793149 H 0.0 **** 0.06
3171 C 47.482000195165114 32.09921055795908 50.847373478308555 C 0.0 **** -0.24
3172 H 48.51896213762028 32.12623745454417 51.18292671576833 H 0.0 **** 0.06
3173 H 46.81994196991508 32.08305741901452 51.712665572304616 H 0.0 **** 0.06
3174 H 47.31910203399622 31.203791973640904 50.2467877071102 H 0.0 **** 0.06
3175 H 47.272450655018574 32.98347055942935 50.2457401247095 H 0.0 **** 0.06
3176 C 17.255846888790927 38.764542703979544 29.211445463107253 C 0.0 **** -0.24
3177 H 17.861423219218466 39.64918839957966 29.4067035851632 H 0.0 **** 0.06
3178 H 17.806645999110458 37.87340023911099 29.51073271682921 H 0.0 **** 0.06
3179 H 17.024831682728347 38.71014554636827 28.14724086071226 H 0.0 **** 0.06
3180 H 16.327860671557744 38.82789581603657 29.781344170946838 H 0.0 **** 0.06
3181 C 97.54298634141895 0.909555818983506 105.00118673884266 C 0.0 **** -0.24
3182 H 98.05618845264553 0.2193883118641793 104.33169972282361 H 0.0 **** 0.06
3183 H 98.27798369130915 1.5243049585436665 105.52201006109524 H 0.0 **** 0.06
3184 H 96.96097979132185 0.344503972094401 105.72875062904906 H 0.0 **** 0.06
3185 H 96.87704553880036 1.5492410944355584 104.42172053173546 H 0.0 **** 0.06
3186 C 72.60387758531574 66.19819431278032 74.87289599484396 C 0.0 **** -0.24
3187 H 72.67667139714989 66.20854490438134 75.96088241609178 H 0.0 **** 0.06
3188 H 73.45307892409484 66.73233364230029 74.44701254016027 H 0.0 **** 0.06
3189 H 71.67772754122367 66.68506021575945 74.56765649835174 H 0.0 **** 0.06
3190 H 72.60619831463427 65.16777150315434 74.51915760222894 H 0.0 **** 0.06
3191 C 86.82307074118725 35.2844741599196 62.402774935852534 C 0.0 **** -0.24
3192 H 86.17435604773374 36.09515108315483 62.07032393584876 H 0.0 **** 0.06
3193 H 86.55433635759853 34.36713008724169 61.878987619821146 H 0.0 **** 0.06
3194 H 86.70109970493544 35.13939599905049 63.47667759630835 H 0.0 **** 0.06
3195 H 87.86070409734108 35.53714581735167 62.18608509627094 H 0.0 **** 0.06
3196 C 20.87428996582264 128.2202630322917 56.649671481579716 C 0.0 **** -0.24
3197 H 20.45029381214411 127.2678421199567 56.33125642816738 H 0.0 **** 0.06
3198 H 21.958085802810004 128.12871409621766 56.72633887206982 H 0.0 **** 0.06
3199 H 20.46331373978714 128.49432302960992 57.62159800136948 H 0.0 **** 0.06
3200 H 20.626029124435263 128.9909038280328 55.92056467656798 H 0.0 **** 0.06
3201 C 46.45108987623462 20.530736281706055 34.39803780920727 C 0.0 **** -0.24
3202 H 47.47242533612402 20.14982099458547 34.40451091702228 H 0.0 **** 0.06
3203 H 46.21192071585355 20.91345309979519 33.40553921752387 H 0.0 **** 0.06
3204 H 46.35805274989744 21.3334202254604 35.130227745464346 H 0.0 **** 0.06
3205 H 45.76169769154282 19.72576991375516 34.65317707402003 H 0.0 **** 0.06
3206 C 32.575674065652834 74.61098473351433 36.61661168280579 C 0.0 **** -0.24
3207 H 33.34235373939242 74.05843072672025 36.07288854255491 H 0.0 **** 0.06
3208 H 32.32677389607909 74.07655720060308 37.534346111878264 H 0.0 **** 0.06
3209 H 31.684975182178334 74.70278684278179 35.996150350100116 H 0.0 **** 0.06
3210 H 32.9514597728612 75.60405718256311 36.86364953715161 H 0.0 **** 0.06
3211 C 37.83390599330869 123.9650097073775 104.49282975047302 C 0.0 **** -0.24
3212 H 38.43297207671347 123.7409802583604 103.60976341854396 H 0.0 **** 0.06
3213 H 38.140794483721066 123.31678024926094 105.31395734310775 H 0.0 **** 0.06
3214 H 36.78073340704984 123.79386807754929 104.26840703257963 H 0.0 **** 0.06
3215 H 37.98081936429858 125.00671932080688 104.777445267545 H 0.0 **** 0.06
3216 C 41.96782306309341 105.37989917739884 22.767826441387683 C 0.0 **** -0.24
3217 H 42.06208897108266 105.85428250758639 21.790370082319384 H 0.0 **** 0.06
3218 H 41.46070580481333 106.0590798192606 23.453367271329824 H 0.0 **** 0.06
3219 H 42.958507086052514 105.14469922812049 23.15494856449436 H 0.0 **** 0.06
3220 H 41.38773673400833 104.46181372493623 22.670659251864663 H 0.0 **** 0.06
3221 C 53.81244390297394 30.46339331817981 101.28518211488027 C 0.0 **** -0.24
3222 H 53.514305608732286 29.4684855881475 101.61668274061259 H 0.0 **** 0.06
3223 H 54.849949339759405 30.644435006721835 101.56508712351292 H 0.0 **** 0.06
3224 H 53.17195492083408 31.20990648941006 101.75601167995521 H 0.0 **** 0.06
3225 H 53.71124342015327 30.52909457104768 100.20157595297731 H 0.0 **** 0.06
3226 C 13.804101361568655 98.41039338121206 63.93150173097672 C 0.0 **** -0.24
3227 H 13.01581432708673 97.77341931911747 63.530288489359805 H 0.0 **** 0.06
3228 H 13.853147838337918 98.28945107512189 65.0139798646652 H 0.0 **** 0.06
3229 H 13.587729660721607 99.45090108078763 63.69053191471755 H 0.0 **** 0.06
3230 H 14.760267458065073 98.1261625663971 63.490203868329104 H 0.0 **** 0.06
3231 C 103.33122406089961 78.21818805345396 35.52636331517962 C 0.0 **** -0.24
3232 H 103.11325908537253 78.6591813591019 36.4993189528042 H 0.0 **** 0.06
3233 H 102.40804458097585 77.84556055811531 35.082498618886746 H 0.0 **** 0.06
3234 H 104.03426504623121 77.39413499053765 35.650033931329006 H 0.0 **** 0.06
3235 H 103.7690814146834 78.9748656568842 34.87500132900553 H 0.0 **** 0.06
3236 C 61.0877485757791 41.65352443716914 62.49675906530803 C 0.0 **** -0.24
3237 H 61.485767476982346 42.48459395613221 61.915009250978585 H 0.0 **** 0.06
3238 H 61.626901741262046 40.741307066202474 62.24216374653889 H 0.0 **** 0.06
3239 H 60.028730389896324 41.52543540626708 62.26896695037709 H 0.0 **** 0.06
3240 H 61.20803600871187 41.86350875795242 63.55989030262896 H 0.0 **** 0.06
3241 C 54.73113763716023 78.82759695646806 19.295127851200988 C 0.0 **** -0.24
3242 H 55.20731052434141 79.60278432108345 18.694190717305986 H 0.0 **** 0.06
3243 H 55.3939203186014 78.5455853195693 20.113846410864852 H 0.0 **** 0.06
3244 H 54.53174002835462 77.95630375265435 18.672523539266138 H 0.0 **** 0.06
3245 H 53.79328757543783 79.2068971044733 19.701248699982955 H 0.0 **** 0.06
3246 C 22.96086434752334 71.28019007866558 102.7076061697013 C 0.0 **** -0.24
3247 H 23.974086573430696 71.07784743452564 103.0554274880563 H 0.0 **** 0.06
3248 H 22.698799812841884 70.57475776936835 101.92036110464471 H 0.0 **** 0.06
3249 H 22.90875855627573 72.2972026305728 102.3175113260644 H 0.0 **** 0.06
3250 H 22.26421826666825 71.17381578296616 103.53936408909632 H 0.0 **** 0.06
3251 C 26.757384831296818 100.61747414286083 46.369687674997266 C 0.0 **** -0.24
3252 H 26.366247833293194 99.63429875368341 46.10755319490838 H 0.0 **** 0.06
3253 H 26.443913613950087 100.87415296094282 47.382030650155855 H 0.0 **** 0.06
3254 H 26.371289562480122 101.35944903187263 45.6702634720867 H 0.0 **** 0.06
3255 H 27.84582382610234 100.6010770072338 46.31873546130515 H 0.0 **** 0.06
3256 C 64.35405980654238 116.00281642529207 1.3162278195210035 C 0.0 **** -0.24
3257 H 64.44456677235249 115.88603809689027 0.236657656940082 H 0.0 **** 0.06
3258 H 64.5346893896838 115.04329781357053 1.8008033635676384 H 0.0 **** 0.06
3259 H 63.34945202266164 116.35014330093563 1.5607166702161521 H 0.0 **** 0.06
3260 H 65.08521397814246 116.73132406891108 1.6660872746098505 H 0.0 **** 0.06
3261 C 69.03965498072418 113.07323445201506 73.30699470863215 C 0.0 **** -0.24
3262 H 68.43605774041256 112.4962917526637 74.00750234718421 H 0.0 **** 0.06
3263 H 69.74562420049878 113.69322637373948 73.86082412830771 H 0.0 **** 0.06
3264 H 68.3896155778327 113.71039637379313 72.70727649598021 H 0.0 **** 0.06
3265 H 69.58625939502818 112.39430871965111 72.65284265635691 H 0.0 **** 0.06
3266 C 102.971455359544 125.56898749456846 2.2325936328694524 C 0.0 **** -0.24
3267 H 101.97792450516778 125.86388621171542 1.8950797056365616 H 0.0 **** 0.06
3268 H 103.21255511625134 126.09768841558835 3.155113413856867 H 0.0 **** 0.06
3269 H 103.7046772477056 125.82257526014232 1.4661874452028485 H 0.0 **** 0.06
3270 H 102.99054945736185 124.49460601122743 2.412938474691913 H 0.0 **** 0.06
3271 C 50.28866188013629 109.3622724463337 71.63536219210602 C 0.0 **** -0.24
3272 H 51.19398028673024 109.95733496514359 71.51600289264212 H 0.0 **** 0.06
3273 H 49.7078580843021 109.39483010099555 70.71371344977291 H 0.0 **** 0.06
3274 H 49.69405137377504 109.76626069350688 72.45510199672259 H 0.0 **** 0.06
3275 H 50.56001659441341 108.32989732530741 71.85798237967896 H 0.0 **** 0.06
3276 C 18.541586008705053 20.595917169831665 88.88781867747488 C 0.0 **** -0.24
3277 H 18.82990720080079 21.557108304479016 88.46210284402494 H 0.0 **** 0.06
3278 H 17.45746531647802 20.553493063313 88.98963201102512 H 0.0 **** 0.06
3279 H 19.00484925792965 20.479915517298252 89.86850330761555 H 0.0 **** 0.06
3280 H 18.876938110725746 19.793265403939614 88.23079463210092 H 0.0 **** 0.06
3281 C 31.246821517280196 86.16356332593162 93.37432691287935 C 0.0 **** -0.24
3282 H 31.30283221807943 87.24689175365641 93.47927818322509 H 0.0 **** 0.06
3283 H 31.42400632942708 85.69500939130336 94.34178913757174 H 0.0 **** 0.06
3284 H 32.00140923425929 85.82767074471249 92.66265208912526 H 0.0 **** 0.06
3285 H 30.256867784739825 85.88535576310417 93.01061587636784 H 0.0 **** 0.06
3286 C 118.53281126928724 60.967347293901724 33.753133714941214 C 0.0 **** -0.24
3287 H 117.71294446499562 60.27572501484654 33.94572781853407 H 0.0 **** 0.06
3288 H 118.64940659981795 61.638375731228166 34.60430575963892 H 0.0 **** 0.06
3289 H 118.31300374648112 61.549721655667256 32.858335286580484 H 0.0 **** 0.06
3290 H 119.45450049511064 60.40611926062469 33.60329223102269 H 0.0 **** 0.06
3291 C 32.44451099605311 42.28012891782814 44.85375758929125 C 0.0 **** -0.24
3292 H 33.027425561237294 42.60271116325683 45.717798620546056 H 0.0 **** 0.06
3293 H 33.113041961181466 41.85270192235089 44.10561585720702 H 0.0 **** 0.06
3294 H 31.922198125024977 43.1369107286192 44.42832645441917 H 0.0 **** 0.06
3295 H 31.718782783187578 41.52928232080228 45.16439460224257 H 0.0 **** 0.06
3296 C 82.9661652200042 60.1421731595176 102.14471973154089 C 0.0 **** -0.24
3297 H 83.257933946545 60.31721186045081 103.17963463678096 H 0.0 **** 0.06
3298 H 83.56218171373081 60.77496117455257 101.487556050011 H 0.0 **** 0.06
3299 H 81.90990330275366 60.3805390613696 102.01906568463022 H 0.0 **** 0.06
3300 H 83.13414228034702 59.09525674096949 101.89214660129508 H 0.0 **** 0.06
3301 C 25.45916073657564 83.88035818197628 53.64418302809915 C 0.0 **** -0.24
3302 H 25.811026143717605 83.10781903700314 52.961089018220946 H 0.0 **** 0.06
3303 H 24.66437237818834 83.47639544931292 54.27088392894575 H 0.0 **** 0.06
3304 H 25.077225008863834 84.72548241714804 53.07087191234592 H 0.0 **** 0.06
3305 H 26.285933520621015 84.21231111437015 54.27288449520859 H 0.0 **** 0.06
3306 C 128.503818611354 82.59670957027276 84.53503005504507 C 0.0 **** -0.24
3307 H 129.56580158815152 82.4980616487046 84.76187199171517 H 0.0 **** 0.06
3308 H 128.30019852723535 83.60755390204224 84.18299025984862 H 0.0 **** 0.06
3309 H 127.92107789579485 82.39955809199085 85.43433032303227 H 0.0 **** 0.06
3310 H 128.22964828578287 81.87996425330437 83.76096077431066 H 0.0 **** 0.06
3311 C 109.8035954735403 57.350783412636545 109.83046742149631 C 0.0 **** -0.24
3312 H 110.7748822394963 57.84419753746566 109.78737422624025 H 0.0 **** 0.06
3313 H 109.38041001468284 57.46878647303299 110.82849240546327 H 0.0 **** 0.06
3314 H 109.92652082824776 56.28990014496429 109.61034115859727 H 0.0 **** 0.06
3315 H 109.13596602856857 57.79962499497637 109.0959256925515 H 0.0 **** 0.06
3316 C 80.63648844176217 46.54855857080159 88.6559883971056 C 0.0 **** -0.24
3317 H 79.67538965558268 47.00072667550686 88.41309223509896 H 0.0 **** 0.06
3318 H 80.80467896170833 46.60829141903116 89.73081691836076 H 0.0 **** 0.06
3319 H 81.43088999547791 47.080703868968506 88.13287558767935 H 0.0 **** 0.06
3320 H 80.63382899303676 45.50289460872247 88.34615723525569 H 0.0 **** 0.06
3321 C 104.79291236225015 75.6593841073458 21.036321811708262 C 0.0 **** -0.24
3322 H 104.51517769066686 74.6746541443326 21.411678709253806 H 0.0 **** 0.06
3323 H 105.73058709719027 75.58796284319365 20.484910368056433 H 0.0 **** 0.06
3324 H 104.91498655126202 76.34617973370027 21.873840244611245 H 0.0 **** 0.06
3325 H 104.00918988161538 76.02999888511735 20.37415314883333 H 0.0 **** 0.06
3326 C 54.356087082980935 16.1706243456523 102.41056230837634 C 0.0 **** -0.24
3327 H 53.63989436025588 15.416064335453484 102.73661088211482 H 0.0 **** 0.06
3328 H 55.34321381631321 15.930378857928758 102.80757424787275 H 0.0 **** 0.06
3329 H 54.04576987342 17.14912958073164 102.77790579619058 H 0.0 **** 0.06
3330 H 54.39587086799065 16.186653558154347 101.3210335892663 H 0.0 **** 0.06
3331 C 7.714358886506524 75.27697765447742 112.83115570442392 C 0.0 **** -0.24
3332 H 8.7946946940537 75.1346095140117 112.84257029262575 H 0.0 **** 0.06
3333 H 7.437133749527884 75.8898652369382 111.97363224166563 H 0.0 **** 0.06
3334 H 7.404087307964492 75.77532899424764 113.74977966512226 H 0.0 **** 0.06
3335 H 7.220993214500407 74.30695756797209 112.75927459307444 H 0.0 **** 0.06
3336 C 78.82540790437542 130.73376871004604 38.736355497128216 C 0.0 **** -0.24
3337 H 79.19473157033548 130.05298138273076 37.96931369826376 H 0.0 **** 0.06
3338 H 77.77644027017033 130.95896858140622 38.54661005929847 H 0.0 **** 0.06
3339 H 79.40636867404021 131.65597950480444 38.71185384445738 H 0.0 **** 0.06
3340 H 78.9260744306236 130.26603157613306 39.71568827418605 H 0.0 **** 0.06
3341 C 67.5127351095968 127.93745557031286 28.31555781623323 C 0.0 **** -0.24
3342 H 67.11317285901976 128.67381564059997 29.013356758227395 H 0.0 **** 0.06
3343 H 67.69932102957853 128.4141221450579 27.352715048191563 H 0.0 **** 0.06
3344 H 66.79092071519568 127.1301718003117 28.18777120687637 H 0.0 **** 0.06
3345 H 68.44465747637474 127.53301031088426 28.70808946346653 H 0.0 **** 0.06
3346 C 61.76710949015984 108.04074466953551 45.53325734540266 C 0.0 **** -0.24
3347 H 62.14791844911315 108.55170297228551 44.649238346599645 H 0.0 **** 0.06
3348 H 61.397325027488705 107.05457568353074 45.25162162492103 H 0.0 **** 0.06
3349 H 60.954733173379225 108.62394259942843 45.966958127064004 H 0.0 **** 0.06
3350 H 62.56834628783605 107.93382544315168 46.263852507719264 H 0.0 **** 0.06
3351 C 43.990109312508736 73.52132921027473 40.02599562288364 C 0.0 **** -0.24
3352 H 43.05161081112456 73.60391792926148 39.477656178942425 H 0.0 **** 0.06
3353 H 44.35178556371416 72.49430550502242 39.9723571286072 H 0.0 **** 0.06
3354 H 43.827691889168136 73.79629648931925 41.0678737404175 H 0.0 **** 0.06
3355 H 44.72884749658334 74.19006939547583 39.5849912099213 H 0.0 **** 0.06
3356 C 104.61293317662364 93.56893715447572 127.16887743614069 C 0.0 **** -0.24
3357 H 104.47664517604605 92.52685422111728 127.45671970069282 H 0.0 **** 0.06
3358 H 105.4664612162691 93.98509580320399 127.70393194505459 H 0.0 **** 0.06
3359 H 103.71583316230516 94.13500695871804 127.41783518433846 H 0.0 **** 0.06
3360 H 104.79331989507438 93.62887599457201 126.09537500887018 H 0.0 **** 0.06
3361 C 96.36905500126181 45.67024409172734 73.50567587703841 C 0.0 **** -0.24
3362 H 97.29130734093093 46.11698235018457 73.8775455280516 H 0.0 **** 0.06
3363 H 95.98623798794705 46.26526486905192 72.67680806396314 H 0.0 **** 0.06
3364 H 95.63064189646667 45.64307215344127 74.30609836663768 H 0.0 **** 0.06
3365 H 96.5712146596477 44.655355178462514 73.16313764357017 H 0.0 **** 0.06
3366 C 76.38040241702464 2.783568547158495 40.148275386809814 C 0.0 **** -0.24
3367 H 77.26385567935509 2.990930380782004 40.751953995406836 H 0.0 **** 0.06
3368 H 76.18434345636591 3.6299376603370774 39.489000973757186 H 0.0 **** 0.06
3369 H 75.52327196186907 2.625246388026653 40.801720005388006 H 0.0 **** 0.06
3370 H 76.55167885362195 1.8881154400052083 39.54963554072799 H 0.0 **** 0.06
3371 C 124.54321929394837 89.00985030676998 89.19329761438284 C 0.0 **** -0.24
3372 H 123.63321965802703 88.78390282411561 89.74883055550283 H 0.0 **** 0.06
3373 H 124.9612352025095 89.95183720659813 89.54892505327139 H 0.0 **** 0.06
3374 H 124.31043189084679 89.09366942307281 88.13187553281287 H 0.0 **** 0.06
3375 H 125.2692930347448 88.21054188922608 89.34358559662962 H 0.0 **** 0.06
3376 C 83.63177723314845 93.36911985857103 81.23644778343555 C 0.0 **** -0.24
3377 H 82.5677807807063 93.55552037067321 81.3826287450041 H 0.0 **** 0.06
3378 H 83.78718388162214 92.3174242972492 80.99919770432314 H 0.0 **** 0.06
3379 H 84.17306356396809 93.62033984060969 82.14887209663942 H 0.0 **** 0.06
3380 H 83.99829249599892 93.98528705186516 80.4150477257759 H 0.0 **** 0.06
3381 C 37.747853341525925 111.35233828715852 68.41670936169788 C 0.0 **** -0.24
3382 H 36.77556216095239 111.71502185476163 68.74999295275336 H 0.0 **** 0.06
3383 H 37.618505616257394 110.41975370256895 67.86664420251981 H 0.0 **** 0.06
3384 H 38.38722590052046 111.17695983485083 69.28297762483226 H 0.0 **** 0.06
3385 H 38.21020911784683 112.09558965186245 67.76816025608716 H 0.0 **** 0.06
3386 C 40.882550893335306 120.45789595448741 22.4135893220445 C 0.0 **** -0.24
3387 H 41.02352026039854 121.5070618344526 22.67502977834991 H 0.0 **** 0.06
3388 H 41.620565392959165 119.85038925275407 22.937638641872056 H 0.0 **** 0.06
3389 H 41.00644701169155 120.33180163162501 21.337161179308005 H 0.0 **** 0.06
3390 H 39.88020108101536 120.14382755655953 22.702952946842174 H 0.0 **** 0.06
3391 C 2.0067420301152197 0.6250091432865261 92.72604495442948 C 0.0 **** -0.24
3392 H 1.1379861145121026 1.146152948907794 93.1292766602169 H 0.0 **** 0.06
3393 H 2.078018268348501 0.8127364784711766 91.65456064198648 H 0.0 **** 0.06
3394 H 1.9011285249611092 -0.44529584312030934 92.90234151034787 H 0.0 **** 0.06
3395 H 2.908712545732101 0.9874418281640658 93.22039733292155 H 0.0 **** 0.06
3396 C 83.14821089049701 61.17898700092928 130.11705437656755 C 0.0 **** -0.24
3397 H 83.03531824240298 61.59002428488546 129.1146557626577 H 0.0 **** 0.06
3398 H 83.30687232248908 61.99065423979752 130.82706727265142 H 0.0 **** 0.06
3399 H 84.00394146891153 60.50363457672749 130.1394551199182 H 0.0 **** 0.06
3400 H 82.24609346685264 60.63057602572792 130.38774425705063 H 0.0 **** 0.06
3401 C 11.418162459717678 83.10201174127803 15.075792661994019 C 0.0 **** -0.24
3402 H 10.748874333875023 82.30735308451682 15.406716430136413 H 0.0 **** 0.06
3403 H 11.905204046715824 83.55026697933528 15.941318027033049 H 0.0 **** 0.06
3404 H 10.84393481538757 83.86210460008994 14.546343031768771 H 0.0 **** 0.06
3405 H 12.1730687973089 82.68577385014328 14.40857461582836 H 0.0 **** 0.06
3406 C 89.9256199081017 72.91770913880478 53.6735722772077 C 0.0 **** -0.24
3407 H 90.04662383492185 72.81062383181009 54.75123559236867 H 0.0 **** 0.06
3408 H 88.88265686851767 73.14079194400986 53.44656856846787 H 0.0 **** 0.06
3409 H 90.21571025279198 71.99000393863653 53.18125726564172 H 0.0 **** 0.06
3410 H 90.5573114870554 73.7316437488133 53.31723017781931 H 0.0 **** 0.06
3411 C 67.55369683856787 18.489121462218336 92.49249295277633 C 0.0 **** -0.24
3412 H 67.44075172660891 19.555690263154723 92.2965595495478 H 0.0 **** 0.06
3413 H 67.14769390890382 18.256095261562038 93.47766804912857 H 0.0 **** 0.06
3414 H 68.61142704265893 18.224493029524183 92.46374988308514 H 0.0 **** 0.06
3415 H 67.01630682729191 17.920852327441686 91.73362102153322 H 0.0 **** 0.06
3416 C 75.45776245069027 55.84701284383158 36.71670192528299 C 0.0 **** -0.24
3417 H 74.58895462604377 55.19074149110443 36.75176286250192 H 0.0 **** 0.06
3418 H 75.24229702434782 56.76527480800641 37.26377242384305 H 0.0 **** 0.06
3419 H 75.68948139019415 56.088391855182664 35.67919964071302 H 0.0 **** 0.06
3420 H 76.31175787644524 55.34459213683954 37.17192139276517 H 0.0 **** 0.06
3421 C 113.16378153027017 113.61115095366326 40.18822653777021 C 0.0 **** -0.24
3422 H 112.83853680736689 114.63201112395303 39.988054493439094 H 0.0 **** 0.06
3423 H 114.05798120721909 113.39419000008554 39.60299289948506 H 0.0 **** 0.06
3424 H 112.37103628496419 112.91677502573854 39.912731661621265 H 0.0 **** 0.06
3425 H 113.38930627983729 113.50323647087323 41.2497624966769 H 0.0 **** 0.06
3426 C 93.66911240867518 25.68224072599321 122.13289698743552 C 0.0 **** -0.24
3427 H 93.6812651687342 25.807682962679074 121.05065857998784 H 0.0 **** 0.06
3428 H 94.45410569570328 24.984792091855375 122.42703041136588 H 0.0 **** 0.06
3429 H 92.70085624965836 25.29140441143845 122.44288950087162 H 0.0 **** 0.06
3430 H 93.84174942526471 26.646441924548 122.61191684729135 H 0.0 **** 0.06
3431 C 66.2679273160767 108.06434669047003 58.36906574109992 C 0.0 **** -0.24
3432 H 65.70403696892097 108.19458071867267 59.29259388312225 H 0.0 **** 0.06
3433 H 67.12136722073225 107.41164251410973 58.55419026076845 H 0.0 **** 0.06
3434 H 66.6214661035551 109.0346061596408 58.01979883250719 H 0.0 **** 0.06
3435 H 65.62563838068871 107.61704492130184 57.61003111967901 H 0.0 **** 0.06
3436 C 39.0620792538503 102.83031614997427 41.09110042342914 C 0.0 **** -0.24
3437 H 38.8399616150715 103.89819046532872 41.0950703854582 H 0.0 **** 0.06
3438 H 38.13643150206545 102.26774926404403 40.967900466297436 H 0.0 **** 0.06
3439 H 39.53338611872117 102.55408978343829 42.03379456646441 H 0.0 **** 0.06
3440 H 39.73840483303346 102.60357657895045 40.266929114432116 H 0.0 **** 0.06
3441 C 47.042129676660494 91.96207274819261 23.486062418115864 C 0.0 **** -0.24
3442 H 47.139881920268635 92.94593263287372 23.028303050543514 H 0.0 **** 0.06
3443 H 47.92836834349353 91.36821375036153 23.26341031037208 H 0.0 **** 0.06
3444 H 46.15962928521165 91.46183524921398 23.085799956957146 H 0.0 **** 0.06
3445 H 46.9385074830455 92.0711855914433 24.565255289297 H 0.0 **** 0.06
3446 C 129.1372289355597 85.3781639607019 121.78119428675012 C 0.0 **** -0.24
3447 H 128.47224620327458 84.53197618155752 121.95570706776942 H 0.0 **** 0.06
3448 H 129.50780761290986 85.75190150983838 122.73565966216978 H 0.0 **** 0.06
3449 H 128.59110660182813 86.16940912585267 121.26754658873733 H 0.0 **** 0.06
3450 H 129.97711629926147 85.0583885334608 121.1650698546228 H 0.0 **** 0.06
3451 C 35.9381103827415 72.69888161714792 27.62694135763391 C 0.0 **** -0.24
3452 H 35.377584624618606 72.70872404673456 28.561887606325968 H 0.0 **** 0.06
3453 H 35.31258299359317 72.28977898520354 26.833479954178593 H 0.0 **** 0.06
3454 H 36.82729379479568 72.07855746948566 27.74487503145737 H 0.0 **** 0.06
3455 H 36.235294076634275 73.71491764617012 27.370574408486043 H 0.0 **** 0.06
3456 C 115.28163683944729 58.981970380138904 16.406949491204983 C 0.0 **** -0.24
3457 H 115.82356994020478 59.557280622653366 15.65628770824775 H 0.0 **** 0.06
3458 H 115.93697272984119 58.78447440515694 17.255825650534128 H 0.0 **** 0.06
3459 H 114.95378450580131 58.037214703078206 15.973319433801304 H 0.0 **** 0.06
3460 H 114.41355436343122 59.54935705632758 16.742217492675678 H 0.0 **** 0.06
3461 C 19.357713402623745 38.79122886059882 82.64657531281964 C 0.0 **** -0.24
3462 H 18.758374898692068 38.31238410326831 83.42129820447542 H 0.0 **** 0.06
3463 H 19.160907974795037 38.312394585872966 81.68706769831132 H 0.0 **** 0.06
3464 H 20.41470740867487 38.692070008941194 82.89208421387204 H 0.0 **** 0.06
3465 H 19.096207025855648 39.84776177984774 82.58654129379144 H 0.0 **** 0.06
3466 C 0.7313762028404653 129.41983487727938 85.49157199903173 C 0.0 **** -0.24
3467 H 1.6976163473694328 129.64886522899593 85.04274628884444 H 0.0 **** 0.06
3468 H 0.5312177126007782 128.3522467280535 85.39501295160743 H 0.0 **** 0.06
3469 H -0.04956321865358859 129.98401198734095 84.98148054424665 H 0.0 **** 0.06
3470 H 0.7461334992864863 129.69336934711717 86.54652487852043 H 0.0 **** 0.06
3471 C 37.904820010091065 57.54173556281614 88.95415769438559 C 0.0 **** -0.24
3472 H 36.94490876250997 57.95172540137452 89.26657911522972 H 0.0 **** 0.06
3473 H 37.73865825428901 56.69187331121485 88.29099634077744 H 0.0 **** 0.06
3474 H 38.463904343677235 57.215489164943946 89.83108497785044 H 0.0 **** 0.06
3475 H 38.472608896900326 58.30826189016996 88.42569132662035 H 0.0 **** 0.06
3476 C 3.635195161354204 87.30170284240631 44.31269096892359 C 0.0 **** -0.24
3477 H 3.5739716584100165 88.39022416837531 44.28918489511122 H 0.0 **** 0.06
3478 H 2.6554180900859023 86.87912069538282 44.088356994862764 H 0.0 **** 0.06
3479 H 3.952404628873296 86.97806111079518 45.30424312463117 H 0.0 **** 0.06
3480 H 4.3570732033095965 86.96265324933898 43.570649961656414 H 0.0 **** 0.06
3481 C 124.72384261469618 3.479378387898379 67.85377335483466 C 0.0 **** -0.24
3482 H 124.99132695598503 4.527466991773736 67.72045096730287 H 0.0 **** 0.06
3483 H 123.68655558693078 3.3285278315626385 67.5538863225958 H 0.0 **** 0.06
3484 H 124.84455873170963 3.2034431078742216 68.90143113340724 H 0.0 **** 0.06
3485 H 125.37490065004687 2.8580212421338445 67.23787217086898 H 0.0 **** 0.06
3486 C 105.91540155012561 43.27240794705219 43.770075986299446 C 0.0 **** -0.24
3487 H 106.47365263087349 44.115519426073945 43.36434432828014 H 0.0 **** 0.06
3488 H 104.99622930844191 43.633515909277946 44.23095327582365 H 0.0 **** 0.06
3489 H 106.52160167082907 42.76211712850059 44.51849910110565 H 0.0 **** 0.06
3490 H 105.67123424321852 42.57873043420253 42.96566981317892 H 0.0 **** 0.06
3491 C 57.45435679143634 31.144676284035455 49.691341596570595 C 0.0 **** -0.24
3492 H 57.21704107149955 31.172260386276236 50.754209773433985 H 0.0 **** 0.06
3493 H 56.88454083890292 31.91596032947993 49.17235102160973 H 0.0 **** 0.06
3494 H 57.19525986793883 30.16669796745228 49.28648775711568 H 0.0 **** 0.06
3495 H 58.520480491520686 31.326014873493165 49.552470864867956 H 0.0 **** 0.06
3496 C 13.84777800471852 60.84173810023995 104.60722305524259 C 0.0 **** -0.24
3497 H 14.137923147966546 60.172589514971264 105.41760350142341 H 0.0 **** 0.06
3498 H 12.765569145454833 60.97527145032737 104.61724080072979 H 0.0 **** 0.06
3499 H 14.152728064282371 60.410396297580064 103.6533109889436 H 0.0 **** 0.06
3500 H 14.33443621955621 61.807982191251625 104.741270161252 H 0.0 **** 0.06
3501 C 124.41106624371854 104.99570545790748 88.1776974300698 C 0.0 **** -0.24
3502 H 125.4946554865333 105.08899119921965 88.24619241232949 H 0.0 **** 0.06
3503 H 124.13809140488381 104.65938050097695 87.17693482621493 H 0.0 **** 0.06
3504 H 123.95006741144321 105.96422965081172 88.37395615865407 H 0.0 **** 0.06
3505 H 124.06174978617997 104.27087679492593 88.91248981408037 H 0.0 **** 0.06
3506 C 87.60526814465653 18.720338915592833 13.192364474717479 C 0.0 **** -0.24
3507 H 86.6980155681364 19.240796974304146 13.499741541890927 H 0.0 **** 0.06
3508 H 88.2693866846209 19.41809587407937 12.683347578485893 H 0.0 **** 0.06
3509 H 87.34457104973797 17.906232163125367 12.515135000319049 H 0.0 **** 0.06
3510 H 88.10697464710717 18.315721231858504 14.070757623226143 H 0.0 **** 0.06
3511 C 95.52817791361798 18.07494924375559 25.874706778741754 C 0.0 **** -0.24
3512 H 95.9443976838565 18.898365396872215 26.455759663210557 H 0.0 **** 0.06
3513 H 95.18865635678156 17.28978959402361 26.54921091395721 H 0.0 **** 0.06
3514 H 96.29468031744193 17.677787695579816 25.20905427672173 H 0.0 **** 0.06
3515 H 94.68688409759449 18.43759610595547 25.28419900430113 H 0.0 **** 0.06
3516 C 40.02134731104278 27.431471116039177 72.75240740574091 C 0.0 **** -0.24
3517 H 39.06590107127795 27.69729462336872 72.30094226422193 H 0.0 **** 0.06
3518 H 40.62929499665306 26.894046679359576 72.0252499230356 H 0.0 **** 0.06
3519 H 39.848209870174124 26.796552009051368 73.62211408120547 H 0.0 **** 0.06
3520 H 40.5410951525913 28.338281701999477 73.06167947283959 H 0.0 **** 0.06
3521 C 29.347496221507384 75.78112647180212 26.964281220362665 C 0.0 **** -0.24
3522 H 29.353999846667847 76.45591468697437 26.107783067569102 H 0.0 **** 0.06
3523 H 29.918503464229957 74.88402266199614 26.724029313512943 H 0.0 **** 0.06
3524 H 28.31920670553785 75.50551186922023 27.20187083785325 H 0.0 **** 0.06
3525 H 29.79729538222469 76.28041347916029 27.822994629431406 H 0.0 **** 0.06
3526 C 36.07115198037183 15.150443270046623 111.90940391980172 C 0.0 **** -0.24
3527 H 35.57036144688795 15.891335276052583 112.53366061358176 H 0.0 **** 0.06
3528 H 35.745654410596444 14.151233590456403 112.20044321646856 H 0.0 **** 0.06
3529 H 37.15015210302903 15.233954382695593 112.04066746466776 H 0.0 **** 0.06
3530 H 35.81685477201459 15.324619004871185 110.86388815562123 H 0.0 **** 0.06
3531 C 37.60905768364921 44.59029736408846 99.89788725656322 C 0.0 **** -0.24
3532 H 38.69110338063689 44.70562308397456 99.84666732151031 H 0.0 **** 0.06
3533 H 37.29193161836645 43.82406739773725 99.18924117764274 H 0.0 **** 0.06
3534 H 37.130222033476485 45.536911452463926 99.64738045387959 H 0.0 **** 0.06
3535 H 37.32284994464072 44.29292318201314 100.90646703345544 H 0.0 **** 0.06
3536 C 93.19932283726925 18.005390138733432 50.64022196546887 C 0.0 **** -0.24
3537 H 92.29205912005048 18.519940471170784 50.95783022968135 H 0.0 **** 0.06
3538 H 94.07065616096793 18.529792560708756 51.03403267615613 H 0.0 **** 0.06
3539 H 93.24469241314476 17.98872876274382 49.55164563520225 H 0.0 **** 0.06
3540 H 93.1875380831165 16.98378702158083 51.01962101769493 H 0.0 **** 0.06
3541 C 104.65805335840047 36.667933938072814 19.720324601265247 C 0.0 **** -0.24
3542 H 103.86478492228538 37.329523727454585 19.372814042877508 H 0.0 **** 0.06
3543 H 104.60782505735025 35.72421349106747 19.177917685314014 H 0.0 **** 0.06
3544 H 104.53405964490669 36.482139895266236 20.78727052845852 H 0.0 **** 0.06
3545 H 105.62553235095129 37.1382562875729 19.543797629562164 H 0.0 **** 0.06
3546 C 23.193031752543845 69.9365898682467 7.06744589003992 C 0.0 **** -0.24
3547 H 23.767766421778845 69.01509154469608 6.974020116306463 H 0.0 **** 0.06
3548 H 23.244539975612327 70.29431204029692 8.096191372088782 H 0.0 **** 0.06
3549 H 22.153143054218162 69.74341314290689 6.800892313900476 H 0.0 **** 0.06
3550 H 23.605491449045303 70.69078709232673 6.398674696967731 H 0.0 **** 0.06
3551 C 99.54813773489053 34.5514889301696 0.0009473714850400938 C 0.0 **** -0.24
3552 H 99.8055194399214 34.054610436547506 -0.9347357586499925 H 0.0 **** 0.06
3553 H 98.82923401974455 33.94121496591637 0.5491195147969563 H 0.0 **** 0.06
3554 H 99.11007716087653 35.52523654438335 -0.21366361875115558 H 0.0 **** 0.06
3555 H 100.44831892935741 34.68199815386242 0.6019479163557833 H 0.0 **** 0.06
3556 C 1.9950724427640232 52.728645445064544 88.37553781153505 C 0.0 **** -0.24
3557 H 1.2915679572395575 53.0725378832185 87.61736178026854 H 0.0 **** 0.06
3558 H 3.0065949850040177 52.74848243444153 87.9676711518346 H 0.0 **** 0.06
3559 H 1.7421223545938318 51.71114472974406 88.67096111957014 H 0.0 **** 0.06
3560 H 1.940589270419835 53.384250657166916 89.24501920731305 H 0.0 **** 0.06
3561 C 77.79808664217839 54.10976179116858 107.91821874560395 C 0.0 **** -0.24
3562 H 78.80654661064412 54.2090136875978 108.32089115864414 H 0.0 **** 0.06
3563 H 77.71343753802478 53.1664713816931 107.37845100490246 H 0.0 **** 0.06
3564 H 77.5962102691422 54.937458296560294 107.23874257808312 H 0.0 **** 0.06
3565 H 77.07693366953961 54.12665270383536 108.73508686825723 H 0.0 **** 0.06
3566 C 8.72038414816151 100.31764116323882 44.34776956913807 C 0.0 **** -0.24
3567 H 7.909030321059877 99.67858198575956 43.998021294432675 H 0.0 **** 0.06
3568 H 8.465768827855396 100.7232680486801 45.32807077999566 H 0.0 **** 0.06
3569 H 8.867944924090423 101.13560785346736 43.64250239371071 H 0.0 **** 0.06
3570 H 9.636510407432848 99.7322725521529 44.42279427324643 H 0.0 **** 0.06
3571 C 89.4213619574302 76.829650940746 7.276434552426082 C 0.0 **** -0.24
3572 H 89.1607464221218 77.54538630490119 8.055966391260228 H 0.0 **** 0.06
3573 H 89.25012724379884 77.27872381964933 6.298019148768493 H 0.0 **** 0.06
3574 H 88.80311635333742 75.93758333939581 7.380853337989098 H 0.0 **** 0.06
3575 H 90.4728589958904 76.5559002941219 7.371907693360246 H 0.0 **** 0.06
3576 C 108.39687579717835 12.534677615925432 120.52438010570359 C 0.0 **** -0.24
3577 H 108.39129144423302 11.451003675104602 120.41090752176314 H 0.0 **** 0.06
3578 H 107.7595282522992 12.815498879339401 121.36297595986679 H 0.0 **** 0.06
3579 H 108.02250717555383 12.997827590045233 119.61150952335765 H 0.0 **** 0.06
3580 H 109.4160413787282 12.87453683160291 120.71142224336074 H 0.0 **** 0.06
3581 C 82.23817185894646 25.60033153698906 108.82249463190641 C 0.0 **** -0.24
3582 H 81.19115169441554 25.795901280081694 108.58900636371206 H 0.0 **** 0.06
3583 H 82.68210392118036 26.490087341515448 109.27094808538658 H 0.0 **** 0.06
3584 H 82.77301975635325 25.347716863164692 107.9076170694309 H 0.0 **** 0.06
3585 H 82.30364469967893 24.76882362808533 109.52461955387025 H 0.0 **** 0.06
3586 C 2.4472049311192166 39.61785641945144 32.533792231606725 C 0.0 **** -0.24
3587 H 3.4300216030464554 39.76801390656556 32.98009657119391 H 0.0 **** 0.06
3588 H 1.6765576888627471 39.93190503904643 33.2382578453566 H 0.0 **** 0.06
3589 H 2.3146195197237454 38.56217052741394 32.295343241591524 H 0.0 **** 0.06
3590 H 2.3692253109603563 40.208815251913734 31.62107797113964 H 0.0 **** 0.06
3591 C 40.68671365758365 61.37098502751482 127.62264276494068 C 0.0 **** -0.24
3592 H 41.18001247143174 61.99166877923349 126.87368314635779 H 0.0 **** 0.06
3593 H 41.22171562701755 60.426822248695856 127.72087700385106 H 0.0 **** 0.06
3594 H 39.659472337665655 61.177084359766496 127.31265031833863 H 0.0 **** 0.06
3595 H 40.68551918290264 61.890232674149274 128.58101686947117 H 0.0 **** 0.06
3596 C 17.866373463060768 6.5042622486979695 50.41040392609321 C 0.0 **** -0.24
3597 H 18.689755083939417 7.076972070328225 49.98310700293507 H 0.0 **** 0.06
3598 H 18.1716561818954 6.0905576933431576 51.37150302075557 H 0.0 **** 0.06
3599 H 17.597888925736925 5.693399598085421 49.73305741191862 H 0.0 **** 0.06
3600 H 17.005029140872693 7.157380360170265 50.552921290415924 H 0.0 **** 0.06
3601 C 128.63459694363698 34.21094320689048 2.8101433995734624 C 0.0 **** -0.24
3602 H 128.01996687641056 34.41463079206983 1.9334925571851613 H 0.0 **** 0.06
3603 H 127.99433308260697 34.09745934811599 3.685354294912031 H 0.0 **** 0.06
3604 H 129.32565998900955 35.038971991637766 2.9697419598301167 H 0.0 **** 0.06
3605 H 129.20004962425125 33.29219630824673 2.65166021668648 H 0.0 **** 0.06
3606 C 2.1835106264957744 127.45099794226248 51.335681624111245 C 0.0 **** -0.24
3607 H 1.1264196874072354 127.40835355232727 51.599195770897396 H 0.0 **** 0.06
3608 H 2.5325691268392916 128.48270016490608 51.40018190292713 H 0.0 **** 0.06
3609 H 2.318346067773348 127.08558329380337 50.31741494264618 H 0.0 **** 0.06
3610 H 2.7552164212833077 126.83013575382027 52.02418943042608 H 0.0 **** 0.06
3611 C 89.53746049099053 98.72750953692588 34.36950505538945 C 0.0 **** -0.24
3612 H 90.15408634024462 99.62259557199292 34.4416849582006 H 0.0 **** 0.06
3613 H 89.6579291455127 98.12941383908975 35.27234461316502 H 0.0 **** 0.06
3614 H 89.84575059255033 98.14315082264946 33.50238765087468 H 0.0 **** 0.06
3615 H 88.49179460855666 99.01473933570958 34.26022394487404 H 0.0 **** 0.06
3616 C 23.694502176680118 35.4532474281792 15.792803806097936 C 0.0 **** -0.24
3617 H 23.913877736931198 34.83009335791187 16.660199262710705 H 0.0 **** 0.06
3618 H 24.13323609960227 36.44065049310138 15.934931131878955 H 0.0 **** 0.06
3619 H 22.614557442456316 35.54800668938191 15.678889230266805 H 0.0 **** 0.06
3620 H 24.115247239669202 34.992662510864825 14.89950344099094 H 0.0 **** 0.06
3621 C 78.17636001748642 120.23592857053623 83.08561629799422 C 0.0 **** -0.24
3622 H 78.9985510422709 120.34289201332575 83.7945001488437 H 0.0 **** 0.06
3623 H 77.63769382519838 121.18093302040653 83.01174598340074 H 0.0 **** 0.06
3624 H 77.49805373439861 119.45569052161329 83.43007763203454 H 0.0 **** 0.06
3625 H 78.57375774865797 119.9657372386884 82.1070294685664 H 0.0 **** 0.06
3626 C 67.76611824489294 68.8973941313288 77.51363452487084 C 0.0 **** -0.24
3627 H 67.31904970831044 68.1992718853736 78.22164126652382 H 0.0 **** 0.06
3628 H 68.61928453357825 69.39127757406575 77.9794756337476 H 0.0 **** 0.06
3629 H 67.02637803820437 69.64526480298518 77.22499382794996 H 0.0 **** 0.06
3630 H 68.09818937846342 68.35419949830748 76.62901041783357 H 0.0 **** 0.06
3631 C 23.457390637296868 106.06943683994253 11.563297612529425 C 0.0 **** -0.24
3632 H 23.76898809817976 105.08045936054378 11.900683278191934 H 0.0 **** 0.06
3633 H 23.438382700542064 106.75310958555109 12.412087781634455 H 0.0 **** 0.06
3634 H 22.460061710876772 106.00597080850174 11.125503515791024 H 0.0 **** 0.06
3635 H 24.16008224115035 106.43625750614292 10.814979772222102 H 0.0 **** 0.06
3636 C 115.08572128312872 44.62634199835631 61.709929223748816 C 0.0 **** -0.24
3637 H 116.0999462035746 44.32772774889352 61.97365023071748 H 0.0 **** 0.06
3638 H 115.082209349784 45.67447224053765 61.41091396387502 H 0.0 **** 0.06
3639 H 114.43189000072127 44.49133122046254 62.571084360407255 H 0.0 **** 0.06
3640 H 114.73046834582735 44.01095513817444 60.88331332870902 H 0.0 **** 0.06
3641 C 41.57067060207016 109.12686184046484 26.482877490028585 C 0.0 **** -0.24
3642 H 42.53212642450126 108.74902250406188 26.830356404187384 H 0.0 **** 0.06
3643 H 40.797152403987546 108.38302170936416 26.67730485577377 H 0.0 **** 0.06
3644 H 41.623892272532764 109.32585875184822 25.412439653418105 H 0.0 **** 0.06
3645 H 41.329745003528444 110.04844065454876 27.01226183713706 H 0.0 **** 0.06
3646 C 20.82372454910606 14.489098020006537 52.85842740206115 C 0.0 **** -0.24
3647 H 19.7388105892106 14.485296567192819 52.964213630468066 H 0.0 **** 0.06
3648 H 21.104399446433575 15.140291809362367 52.03031886572742 H 0.0 **** 0.06
3649 H 21.172056790419532 13.47571094685631 52.65946070474669 H 0.0 **** 0.06
3650 H 21.277229720979193 14.8548003939637 53.77933307973373 H 0.0 **** 0.06
3651 C 107.75407785301213 103.50102224798005 128.3793684210348 C 0.0 **** -0.24
3652 H 107.8487104539756 103.94108079757194 129.37116603691337 H 0.0 **** 0.06
3653 H 107.94431520857106 102.42820102148454 128.43720411268916 H 0.0 **** 0.06
3654 H 108.47696552136755 103.96278288538207 127.7062576982423 H 0.0 **** 0.06
3655 H 106.74495288722113 103.67103259551703 128.00138050164983 H 0.0 **** 0.06
3656 C 30.15585725369658 114.9917524375231 50.96195370229168 C 0.0 **** -0.24
3657 H 30.685023541877584 114.25010275692782 51.559390894198515 H 0.0 **** 0.06
3658 H 29.880381138477617 114.55508612528368 50.00226475194469 H 0.0 **** 0.06
3659 H 30.80225608513291 115.85413303092926 50.796948341201784 H 0.0 **** 0.06
3660 H 29.25547690362339 115.30762030410816 51.490165082248296 H 0.0 **** 0.06
3661 C 101.44718253083909 63.95459526181895 121.92777741365356 C 0.0 **** -0.24
3662 H 101.45379625550936 63.58132031267924 122.95121010188828 H 0.0 **** 0.06
3663 H 100.86913456851727 63.27872274183534 121.2979104945772 H 0.0 **** 0.06
3664 H 102.47055817020009 64.01200637610935 121.55569303229763 H 0.0 **** 0.06
3665 H 100.9969225332527 64.94779454299756 121.90647770256408 H 0.0 **** 0.06
3666 C 57.45574551327162 34.0473042039915 128.14531398853126 C 0.0 **** -0.24
3667 H 56.85418439014343 34.06602299090849 127.23615100477747 H 0.0 **** 0.06
3668 H 58.39753661031553 34.56642408693398 127.96894359390416 H 0.0 **** 0.06
3669 H 57.65762266829638 33.012549440791105 128.4248989487097 H 0.0 **** 0.06
3670 H 56.91183879333167 34.54125536029596 128.9502768368767 H 0.0 **** 0.06
3671 C 107.00697943381923 91.45856855455028 116.15476897450083 C 0.0 **** -0.24
3672 H 107.10502418356074 92.39462875903234 116.70662232167291 H 0.0 **** 0.06
3673 H 106.2269482727717 91.56298227278305 115.3997791048505 H 0.0 **** 0.06
3674 H 106.74153236924562 90.65730516753925 116.84441838553505 H 0.0 **** 0.06
3675 H 107.95388799551384 91.2232172898222 115.66916789065039 H 0.0 **** 0.06
3676 C 78.64436416277448 0.3368211071774567 87.65322860138544 C 0.0 **** -0.24
3677 H 79.51904603114122 -0.3100148588835623 87.59290218948026 H 0.0 **** 0.06
3678 H 77.85707503980179 -0.16691524052558293 88.21458235038142 H 0.0 **** 0.06
3679 H 78.2878781868836 0.5597587027047553 86.64670828572451 H 0.0 **** 0.06
3680 H 78.91346807640643 1.2657086379996656 88.15661666138426 H 0.0 **** 0.06
3681 C 39.91068484101493 81.91105106267528 49.54211953111154 C 0.0 **** -0.24
3682 H 39.57635521199063 82.35646378934808 48.60565884471062 H 0.0 **** 0.06
3683 H 40.79769394016057 82.43471867992912 49.896805987459075 H 0.0 **** 0.06
3684 H 40.14875983697084 80.85993027339546 49.37975931211248 H 0.0 **** 0.06
3685 H 39.118118187337075 81.99247351918498 50.28567580226151 H 0.0 **** 0.06
3686 C 52.79923204833523 22.764149748649004 47.66336554025409 C 0.0 **** -0.24
3687 H 53.244884984625 23.350035828233985 48.46627919957666 H 0.0 **** 0.06
3688 H 52.56865393924295 21.763573593717325 48.02921601102737 H 0.0 **** 0.06
3689 H 53.49976762114892 22.695434959487166 46.831899012830775 H 0.0 **** 0.06
3690 H 51.88188730582834 23.248205369715407 47.32732047570721 H 0.0 **** 0.06
3691 C 90.99262523979843 83.11611044674848 84.26817661946501 C 0.0 **** -0.24
3692 H 90.72430838829052 82.06265058278203 84.18876723424546 H 0.0 **** 0.06
3693 H 90.8871138630185 83.59194640511944 83.2932858809609 H 0.0 **** 0.06
3694 H 92.02468028048764 83.20386736592259 84.6065751180052 H 0.0 **** 0.06
3695 H 90.33317649599155 83.6052811758672 84.98508932192405 H 0.0 **** 0.06
3696 C 123.90661928574316 13.018315906789582 129.1520780106026 C 0.0 **** -0.24
3697 H 124.54783845870956 12.178741355040557 128.8839082768637 H 0.0 **** 0.06
3698 H 123.57459891143073 12.90707674440705 130.18432691085596 H 0.0 **** 0.06
3699 H 123.03989309551103 13.039492812639793 128.49120227552757 H 0.0 **** 0.06
3700 H 124.46490480285729 13.948935290505233 129.04701445257254 H 0.0 **** 0.06
3701 C 12.03498819955442 10.531085424698876 20.195447807927792 C 0.0 **** -0.24
3702 H 12.992112831857924 10.837495249912937 20.61846432356262 H 0.0 **** 0.06
3703 H 12.043409683449966 10.698134656419604 19.118903319049963 H 0.0 **** 0.06
3704 H 11.234311302024452 11.116434910440624 20.648840596770498 H 0.0 **** 0.06
3705 H 11.87101656028075 9.47297363352402 20.398359571539373 H 0.0 **** 0.06
3706 C 64.12415261844943 3.776504642549469 107.1577065389182 C 0.0 **** -0.24
3707 H 63.48279100993064 4.462317515459745 107.71122208335896 H 0.0 **** 0.06
3708 H 63.640202865258544 3.506656067161657 106.2184425099144 H 0.0 **** 0.06
3709 H 64.29249009321929 2.8772850999013144 107.75150807008971 H 0.0 **** 0.06
3710 H 65.07895969169005 4.259401881548968 106.95007424134731 H 0.0 **** 0.06
3711 C 50.76829998436517 15.780480387856556 44.334598485099974 C 0.0 **** -0.24
3712 H 51.53435802463116 15.724295604785496 45.108540258272 H 0.0 **** 0.06
3713 H 49.816553127029465 15.435530904415089 44.74052991581166 H 0.0 **** 0.06
3714 H 51.0543178368182 15.150236409389919 43.493318679963124 H 0.0 **** 0.06
3715 H 50.66743390588334 16.81251827559791 43.998073113403876 H 0.0 **** 0.06
3716 C 35.85767169493687 2.683195623699987 128.9673614149205 C 0.0 **** -0.24
3717 H 35.46841488160686 3.688822818980327 129.1232219003607 H 0.0 **** 0.06
3718 H 35.17547035189682 1.9575509216353453 129.4107670864971 H 0.0 **** 0.06
3719 H 36.83695440375061 2.5956350005960758 129.4370484771572 H 0.0 **** 0.06
3720 H 35.94845702964875 2.4909425869165034 127.89821022222156 H 0.0 **** 0.06
3721 C 108.43212492441887 92.57365604659051 68.82870891345398 C 0.0 **** -0.24
3722 H 107.5962704953315 92.10531222481112 69.34790240079938 H 0.0 **** 0.06
3723 H 109.11476516498216 91.8036005132031 68.47013923192877 H 0.0 **** 0.06
3724 H 108.96019548664225 93.23705672024354 69.51476254294545 H 0.0 **** 0.06
3725 H 108.05731873408537 93.15081661382271 67.98318215944715 H 0.0 **** 0.06
3726 C 123.69366921445615 6.82311011028429 17.291061615288662 C 0.0 **** -0.24
3727 H 123.05802025707379 7.657013974512722 16.993420532596645 H 0.0 **** 0.06
3728 H 124.70640913678952 7.183878844261983 17.469902947009437 H 0.0 **** 0.06
3729 H 123.70717530391667 6.076353150636464 16.4981921385734 H 0.0 **** 0.06
3730 H 123.30121127997396 6.375888364143748 18.20474481573293 H 0.0 **** 0.06
3731 C 0.41673127323562653 96.23280547903461 73.94881004552418 C 0.0 **** -0.24
3732 H 0.2990280283870561 95.9072186531004 74.98325034669602 H 0.0 **** 0.06
3733 H 1.036936579530476 95.51528692288278 73.41109264888723 H 0.0 **** 0.06
3734 H 0.8947705381997082 97.21259202145555 73.92951482997113 H 0.0 **** 0.06
3735 H -0.5621622026747559 96.2965220470835 73.47471809996038 H 0.0 **** 0.06
3736 C 23.06465816787634 55.7217786324141 70.35384869164349 C 0.0 **** -0.24
3737 H 22.20451354371935 56.29436409870863 70.00614248383604 H 0.0 **** 0.06
3738 H 23.7738180748255 56.39171869775896 70.84090931682002 H 0.0 **** 0.06
3739 H 23.54604410597174 55.23743384911518 69.50505124517841 H 0.0 **** 0.06
3740 H 22.73273718473685 54.96405923472986 71.06486581032257 H 0.0 **** 0.06
3741 C 94.31444029213151 96.53737486247402 117.41005938840468 C 0.0 **** -0.24
3742 H 94.42390381581569 96.9615527577894 118.4080610463959 H 0.0 **** 0.06
3743 H 95.24257934160143 96.67472008147635 116.85420533276597 H 0.0 **** 0.06
3744 H 93.50113942226972 97.04068498353425 116.88859893129289 H 0.0 **** 0.06
3745 H 94.09239771772621 95.47347817731043 117.48923243592837 H 0.0 **** 0.06
3746 C 37.03181371140566 4.27386888560693 52.40120633288946 C 0.0 **** -0.24
3747 H 37.74577007208852 4.111831405251735 53.20923769646565 H 0.0 **** 0.06
3748 H 37.42956630353503 5.016579762891183 51.709533790842 H 0.0 **** 0.06
3749 H 36.089008368625635 4.629711934435193 52.81623435652979 H 0.0 **** 0.06
3750 H 36.86527796574406 3.3354750323587723 51.87178653799276 H 0.0 **** 0.06
3751 C 23.24989977819498 66.08010259506392 30.892482523358012 C 0.0 **** -0.24
3752 H 23.729267727622613 65.4464662331759 31.6387229692059 H 0.0 **** 0.06
3753 H 22.63027514281294 66.82492710527642 31.392543786229226 H 0.0 **** 0.06
3754 H 22.627473992390293 65.46645142046333 30.241730027543667 H 0.0 **** 0.06
3755 H 24.013501852656823 66.5820269442331 30.298899127736405 H 0.0 **** 0.06
3756 C 74.23970215295486 29.965084667860197 112.63679423219428 C 0.0 **** -0.24
3757 H 74.9506450614567 29.763137917763686 111.8347535609438 H 0.0 **** 0.06
3758 H 74.10786270122114 31.04225385431016 112.74051207464534 H 0.0 **** 0.06
3759 H 74.62029428642958 29.55290905053488 113.57075798840994 H 0.0 **** 0.06
3760 H 73.2827533237116 29.501910563367005 112.39777097341411 H 0.0 **** 0.06
3761 C 105.68902791011568 113.0871419784631 21.528195427008598 C 0.0 **** -0.24
3762 H 106.11463571170357 112.19465725606815 21.07065261107863 H 0.0 **** 0.06
3763 H 105.90998078020834 113.95509642754762 20.90732317951631 H 0.0 **** 0.06
3764 H 106.12274837595724 113.22929542469485 22.51826484396804 H 0.0 **** 0.06
3765 H 104.60887156108178 112.9703412732493 21.618845050554455 H 0.0 **** 0.06
3766 C 40.73463304650172 17.690917106332506 104.68745014420382 C 0.0 **** -0.24
3767 H 41.32375097321577 16.951970141649213 104.14431027132015 H 0.0 **** 0.06
3768 H 40.2960033772748 18.396629009526123 103.98049943148011 H 0.0 **** 0.06
3769 H 41.37854150110616 18.22687510503721 105.38470073844371 H 0.0 **** 0.06
3770 H 39.940386894440266 17.187374270558678 105.2391476777257 H 0.0 **** 0.06
3771 C 6.090283407330716 82.13423623007796 123.35694643653864 C 0.0 **** -0.24
3772 H 5.545572548879363 82.14754855859519 122.41271058002627 H 0.0 **** 0.06
3773 H 5.708482144788235 81.33028446414184 123.98603292509253 H 0.0 **** 0.06
3774 H 5.958494914941966 83.08902090968328 123.86639565079176 H 0.0 **** 0.06
3775 H 7.150308011543075 81.97083220335495 123.1614305577601 H 0.0 **** 0.06
3776 C 0.42218261546758207 114.35657422616687 85.45122125267248 C 0.0 **** -0.24
3777 H -0.6013686441942223 113.98359926354682 85.50494324566166 H 0.0 **** 0.06
3778 H 0.9398673931487664 113.87782433100837 84.61975597822789 H 0.0 **** 0.06
3779 H 0.940266806758661 114.12837457382166 86.38243880720891 H 0.0 **** 0.06
3780 H 0.4073333834293962 115.43519689456839 85.29892207778092 H 0.0 **** 0.06
3781 C 56.39229841032045 105.88553907254641 85.56903446802863 C 0.0 **** -0.24
3782 H 57.12670044982423 106.56087499610061 85.1293089371779 H 0.0 **** 0.06
3783 H 55.62134153142017 105.65876572922194 84.8320352416136 H 0.0 **** 0.06
3784 H 55.936657800272144 106.36140233959877 86.43756096239765 H 0.0 **** 0.06
3785 H 56.8851733730815 104.9627156667954 85.87550913628411 H 0.0 **** 0.06
3786 C 45.15522801833467 107.05738805259664 38.430045628703965 C 0.0 **** -0.24
3787 H 44.99361435797428 106.52305497673485 37.49412649277883 H 0.0 **** 0.06
3788 H 44.60054631983428 107.99579874514623 38.412925996809975 H 0.0 **** 0.06
3789 H 46.21869276579204 107.26448573056695 38.55128001770032 H 0.0 **** 0.06
3790 H 44.806940382992195 106.44491606418829 39.262111306936504 H 0.0 **** 0.06
3791 C 57.29853630504698 29.184551296234474 31.905854597928453 C 0.0 **** -0.24
3792 H 58.019255578107874 28.445826271693278 31.554514926799015 H 0.0 **** 0.06
3793 H 56.35014829333613 29.04279543461152 31.38575746013629 H 0.0 **** 0.06
3794 H 57.67748065511333 30.186564052236378 31.7026573252798 H 0.0 **** 0.06
3795 H 57.147016908625574 29.062969372611718 32.97826644115952 H 0.0 **** 0.06
3796 C 66.35676415277655 9.454790525243311 62.28718243165929 C 0.0 **** -0.24
3797 H 66.98959609299065 9.006569400099977 63.05357271299039 H 0.0 **** 0.06
3798 H 66.95784381757038 9.68108762736074 61.40615555233484 H 0.0 **** 0.06
3799 H 65.91658227199021 10.374864594816927 62.672610933307 H 0.0 **** 0.06
3800 H 65.56390696404935 8.75759960875979 62.01695520776292 H 0.0 **** 0.06
3801 C 94.9222716911912 34.92442893225106 67.53299093761072 C 0.0 **** -0.24
3802 H 94.21014483746728 34.67907428643167 66.7454721261191 H 0.0 **** 0.06
3803 H 95.51678143695594 34.04171540297756 67.77283999801111 H 0.0 **** 0.06
3804 H 94.38152154020901 35.25127993650969 68.42156575400091 H 0.0 **** 0.06
3805 H 95.57929103811966 35.72415853344606 67.19307103702823 H 0.0 **** 0.06
3806 C 24.19026441490007 57.36762081973026 113.27373283773076 C 0.0 **** -0.24
3807 H 24.033459747309223 56.2893587662268 113.27115179401878 H 0.0 **** 0.06
3808 H 23.235787537182887 57.872274575516315 113.42387595035953 H 0.0 **** 0.06
3809 H 24.618988215630736 57.6757121044071 112.32069764898483 H 0.0 **** 0.06
3810 H 24.871966692182014 57.63315750439395 114.08150119707457 H 0.0 **** 0.06
3811 C 0.9132337315595578 65.19176261164371 65.84941914259839 C 0.0 **** -0.24
3812 H 1.6254128833512596 65.49470451500186 65.08107312862583 H 0.0 **** 0.06
3813 H 1.4362004435942595 65.06432322454033 66.79732973949699 H 0.0 **** 0.06
3814 H 0.4478778031240722 64.24865852670207 65.56113443813439 H 0.0 **** 0.06
3815 H 0.14613651883172452 65.95821299200193 65.95603575815095 H 0.0 **** 0.06
3816 C 28.709280931877032 22.104064610917376 44.739286417670485 C 0.0 **** -0.24
3817 H 27.748877632063255 21.939884715610816 44.24996242424601 H 0.0 **** 0.06
3818 H 29.506917983153272 21.69812405655017 44.117962177133165 H 0.0 **** 0.06
3819 H 28.712793202338617 21.604266435457788 45.7081429288682 H 0.0 **** 0.06
3820 H 28.86587920594448 23.172669254500818 44.881548451235176 H 0.0 **** 0.06
3821 C 53.5852894435678 110.12886455243085 123.44921232415496 C 0.0 **** -0.24
3822 H 53.60617868242308 111.08452040251734 123.97248756109803 H 0.0 **** 0.06
3823 H 53.577354154682766 109.31608131181176 124.17640829666425 H 0.0 **** 0.06
3824 H 54.46936030250336 110.04245336034775 122.81748113639267 H 0.0 **** 0.06
3825 H 52.689676446438654 110.07238261859172 122.83055279147565 H 0.0 **** 0.06
3826 C 79.627388561417 119.86166607278466 53.069792461891055 C 0.0 **** -0.24
3827 H 78.87734470134151 119.6713239536976 52.301682708212226 H 0.0 **** 0.06
3828 H 79.2471698679897 119.53337243635906 54.037184062004286 H 0.0 **** 0.06
3829 H 79.8449921324814 120.92956579184005 53.10803390892664 H 0.0 **** 0.06
3830 H 80.53869672872955 119.31376183644517 52.83111733502449 H 0.0 **** 0.06
3831 C 72.09008336297393 41.13082443104133 15.869363384917875 C 0.0 **** -0.24
3832 H 72.3022799453256 40.44514719721107 15.048597978627583 H 0.0 **** 0.06
3833 H 72.30941101209659 40.63988234238431 16.818396478187424 H 0.0 **** 0.06
3834 H 71.0387825818429 41.414990698795435 15.84128144939828 H 0.0 **** 0.06
3835 H 72.71058317849588 42.02113980337808 15.768224986537717 H 0.0 **** 0.06
3836 C 42.59965916847844 92.5499627690773 19.055954278238346 C 0.0 **** -0.24
3837 H 42.11904267802842 92.42356600198906 18.086414153731198 H 0.0 **** 0.06
3838 H 42.17783684163223 93.42010878330026 19.559568557676414 H 0.0 **** 0.06
3839 H 43.67049505152863 92.69635535668539 18.914362628734636 H 0.0 **** 0.06
3840 H 42.431193973212345 91.66123161609536 19.66339796740084 H 0.0 **** 0.06
3841 C 37.209549898497414 51.14078881911277 55.85249957789864 C 0.0 **** -0.24
3842 H 37.728130475147 51.43262981264391 54.93950972899022 H 0.0 **** 0.06
3843 H 36.13449398128898 51.25160797820942 55.710568741549 H 0.0 **** 0.06
3844 H 37.535173433920875 51.778217834268816 56.67492834009121 H 0.0 **** 0.06
3845 H 37.44046178418964 50.10165804914101 56.085270642344156 H 0.0 **** 0.06
3846 C 26.60518203037165 26.429668572732353 75.77994245913493 C 0.0 **** -0.24
3847 H 27.283637788714543 26.07070569324631 75.0046650747289 H 0.0 **** 0.06
3848 H 25.918211389597047 27.158546722174442 75.35120782062812 H 0.0 **** 0.06
3849 H 27.18174965575068 26.897125351155196 76.57776284466799 H 0.0 **** 0.06
3850 H 26.03916064666967 25.590333669838884 76.18368020877085 H 0.0 **** 0.06
3851 C 27.28369998501178 75.16384099142941 118.0142124973164 C 0.0 **** -0.24
3852 H 26.886025333135223 74.95326014351139 117.02109010537033 H 0.0 **** 0.06
3853 H 26.63184575194186 74.72099426401589 118.76745105241743 H 0.0 **** 0.06
3854 H 27.333226655290858 76.24248216374751 118.1639215913275 H 0.0 **** 0.06
3855 H 28.28350012006004 74.73970034878275 118.10219446371175 H 0.0 **** 0.06
3856 C 75.09823388156158 40.67590930297287 121.00444792264238 C 0.0 **** -0.24
3857 H 75.63728000738953 40.0897449325972 120.25959550570889 H 0.0 **** 0.06
3858 H 75.80955416973507 41.13100868783578 121.69340397900538 H 0.0 **** 0.06
3859 H 74.42085453294439 40.02505680695964 121.55659343985297 H 0.0 **** 0.06
3860 H 74.52486844723785 41.45687342339474 120.50460033261524 H 0.0 **** 0.06
3861 C 92.4130613359124 18.512034286730028 32.58536286244333 C 0.0 **** -0.24
3862 H 93.40170088214978 18.879491718343303 32.31117437653796 H 0.0 **** 0.06
3863 H 92.33548041852458 18.45550457203816 33.67158020583955 H 0.0 **** 0.06
3864 H 92.26281918938054 17.52097342048497 32.157803396048365 H 0.0 **** 0.06
3865 H 91.65326608608763 19.1930137985656 32.20138425296096 H 0.0 **** 0.06
3866 C 80.32881105773913 86.74505626626656 24.5041204995444 C 0.0 **** -0.24
3867 H 79.66830216451353 87.6078726307775 24.59108832752287 H 0.0 **** 0.06
3868 H 80.575644345059 86.37475417677622 25.49922560485919 H 0.0 **** 0.06
3869 H 81.24251020246248 87.0387958769427 23.987365831281693 H 0.0 **** 0.06
3870 H 79.82790918473609 85.95895120028257 23.93834788035582 H 0.0 **** 0.06
3871 C 63.41756535117611 67.67757553676037 2.558200309256023 C 0.0 **** -0.24
3872 H 64.10193293332435 67.16775953205016 1.880563173507511 H 0.0 **** 0.06
3873 H 62.40595755698331 67.29888763213864 2.4045099112305195 H 0.0 **** 0.06
3874 H 63.439317322535686 68.74883513670525 2.358224839336515 H 0.0 **** 0.06
3875 H 63.72160297946988 67.49275207207413 3.5882303315415527 H 0.0 **** 0.06
3876 C 3.593438156554466 52.598511521195405 52.37380487544934 C 0.0 **** -0.24
3877 H 2.9827401872480337 53.501051843443236 52.39509853768385 H 0.0 **** 0.06
3878 H 4.5135618803737465 52.769843587065964 52.93239696311795 H 0.0 **** 0.06
3879 H 3.836380503202122 52.34842346250201 51.3411406314614 H 0.0 **** 0.06
3880 H 3.040858692574105 51.776097881453495 52.82686022229211 H 0.0 **** 0.06
3881 C 59.363223834282735 36.71936404770338 22.922713544004324 C 0.0 **** -0.24
3882 H 58.335418330398724 37.0824414259708 22.899003405733524 H 0.0 **** 0.06
3883 H 60.002479396676776 37.40069467763119 22.35905273596856 H 0.0 **** 0.06
3884 H 59.40772421171313 35.72644654572805 22.47613323162713 H 0.0 **** 0.06
3885 H 59.706259964987936 36.6694445288378 23.95543792400011 H 0.0 **** 0.06
3886 C 53.388696034930675 62.83673235099084 22.651577959618947 C 0.0 **** -0.24
3887 H 52.32308278296193 62.88068675769048 22.875570930354627 H 0.0 **** 0.06
3888 H 53.57042430179318 62.07276322244266 21.894650907795324 H 0.0 **** 0.06
3889 H 53.939814715798335 62.588272098970776 23.55883051467498 H 0.0 **** 0.06
3890 H 53.72106813029262 63.80530364288762 22.27817347588541 H 0.0 **** 0.06
3891 C 43.882175210737444 111.54984648761419 38.812697067708754 C 0.0 **** -0.24
3892 H 43.192607567946524 110.90582191193559 39.35831531722381 H 0.0 **** 0.06
3893 H 43.97472678771762 112.50398929729982 39.331026255534155 H 0.0 **** 0.06
3894 H 43.5017292939355 111.71744044438611 37.80526983995668 H 0.0 **** 0.06
3895 H 44.85936039933348 111.0699224601455 38.756354180638034 H 0.0 **** 0.06
3896 C 26.178659156395156 104.25527429110218 79.19970596490705 C 0.0 **** -0.24
3897 H 25.316574196629574 104.26307616283461 79.86564969071613 H 0.0 **** 0.06
3898 H 26.04310117886206 103.48609288377617 78.4387443879473 H 0.0 **** 0.06
3899 H 27.08014991320823 104.04188988228208 79.77598636803742 H 0.0 **** 0.06
3900 H 26.276111712728152 105.22928238824977 78.72009810241846 H 0.0 **** 0.06
3901 C 127.92982817585244 37.00749773588814 8.008982532660951 C 0.0 **** -0.24
3902 H 128.25226730946054 37.51054264414546 8.921630547106673 H 0.0 **** 0.06
3903 H 127.22884887600571 37.646035084743176 7.470620580476151 H 0.0 **** 0.06
3904 H 127.44321278061938 36.06721904742881 8.265058351082189 H 0.0 **** 0.06
3905 H 128.79724784035477 36.80823145969532 7.379933622785302 H 0.0 **** 0.06
3906 C 68.38624809946677 75.33439870623093 12.51661653226023 C 0.0 **** -0.24
3907 H 67.80115790204218 74.99353753672541 13.371054722213955 H 0.0 **** 0.06
3908 H 69.4361139305723 75.08640414401147 12.674375626107746 H 0.0 **** 0.06
3909 H 68.2784005728044 76.41388858402809 12.410428067068722 H 0.0 **** 0.06
3910 H 68.02884926226713 74.8422073913983 11.6121419620967 H 0.0 **** 0.06
3911 C 37.259503608255365 118.9339950847044 24.14601964735874 C 0.0 **** -0.24
3912 H 37.83788080337263 118.2499949094516 24.766760355949316 H 0.0 **** 0.06
3913 H 36.78239736499937 119.68249363622427 24.779458735121125 H 0.0 **** 0.06
3914 H 36.49527157519582 118.37477196089942 23.60516991400482 H 0.0 **** 0.06
3915 H 37.92148496000059 119.427274882276 23.434086913791248 H 0.0 **** 0.06
3916 C 61.44340806427512 80.12931653199435 125.92811566690153 C 0.0 **** -0.24
3917 H 61.521918466936896 79.08818198340428 126.2420479371188 H 0.0 **** 0.06
3918 H 62.35159441125904 80.66337353310192 126.20859950114016 H 0.0 **** 0.06
3919 H 60.584458142096636 80.59056927485703 126.41673256672135 H 0.0 **** 0.06
3920 H 61.31315959000143 80.17318698020539 124.84706332856751 H 0.0 **** 0.06
3921 C 112.48828935478078 98.28738052615671 30.07355589430577 C 0.0 **** -0.24
3922 H 112.1028142788776 97.37169787979803 29.624817947311413 H 0.0 **** 0.06
3923 H 112.4250168818283 98.21254794279776 31.15967292882931 H 0.0 **** 0.06
3924 H 111.89646288268487 99.13686870959168 29.73211374191908 H 0.0 **** 0.06
3925 H 113.52814640705894 98.42623938177815 29.778505097342276 H 0.0 **** 0.06
3926 C 64.60818780114278 34.355375968158974 109.73146837416925 C 0.0 **** -0.24
3927 H 64.09151806566439 34.88216380058762 110.534113667376 H 0.0 **** 0.06
3928 H 63.87512629451771 33.90178201483818 109.06355678878612 H 0.0 **** 0.06
3929 H 65.24306923645042 33.578356102979974 110.15667671815822 H 0.0 **** 0.06
3930 H 65.22324357081061 35.06003702804779 109.17101613909205 H 0.0 **** 0.06
3931 C 121.31408471519885 109.75618146680577 47.92209019329225 C 0.0 **** -0.24
3932 H 120.28363985854554 110.0962479364861 47.813390013956116 H 0.0 **** 0.06
3933 H 121.95432929695193 110.3175459612394 47.240946816489014 H 0.0 **** 0.06
3934 H 121.37281623319836 108.69413966408814 47.684710187882935 H 0.0 **** 0.06
3935 H 121.64330895660845 109.91848999734367 48.94827428581881 H 0.0 **** 0.06
3936 C 93.48695875153055 83.4651861714939 27.7561074702366 C 0.0 **** -0.24
3937 H 94.40730492279481 83.49975515195504 27.17242397215324 H 0.0 **** 0.06
3938 H 93.54566743250514 82.64947031521346 28.47627159539266 H 0.0 **** 0.06
3939 H 92.64044277915461 83.30119675912428 27.08943015569011 H 0.0 **** 0.06
3940 H 93.35626520769075 84.40916984034165 28.28423855679108 H 0.0 **** 0.06
3941 C 40.596594820356984 63.577245040671215 89.78926829474267 C 0.0 **** -0.24
3942 H 40.84219488858281 63.72469885414816 88.73756897898602 H 0.0 **** 0.06
3943 H 41.11756672052746 64.32170613188089 90.39103769694191 H 0.0 **** 0.06
3944 H 40.905476643111456 62.578106562163754 90.09653168281909 H 0.0 **** 0.06
3945 H 39.520967226451546 63.68426952424679 89.92878351649858 H 0.0 **** 0.06
3946 C 2.523423711140481 55.26476742838801 56.250050506340045 C 0.0 **** -0.24
3947 H 2.8487521703303287 55.23107216483872 57.28989208102877 H 0.0 **** 0.06
3948 H 3.3375970249252873 54.935329022956765 55.604046901998345 H 0.0 **** 0.06
3949 H 2.241318189235102 56.28478324386002 55.989545865660006 H 0.0 **** 0.06
3950 H 1.664959320883355 54.60599179636968 56.1178459489837 H 0.0 **** 0.06
3951 C 120.07748166741517 42.823780661255284 18.018128337209376 C 0.0 **** -0.24
3952 H 120.38995764045896 43.49854095174712 18.81490231325074 H 0.0 **** 0.06
3953 H 120.376584010694 43.23608333295218 17.05480506428315 H 0.0 **** 0.06
3954 H 118.99314912999975 42.709118194361906 18.044070971681492 H 0.0 **** 0.06
3955 H 120.54866850951436 41.85117833271414 18.15944405129779 H 0.0 **** 0.06
3956 C 112.99844891861258 113.90121881006736 77.3048694160353 C 0.0 **** -0.24
3957 H 112.5315947670559 113.8750801579513 78.28904439704101 H 0.0 **** 0.06
3958 H 112.59142927858832 114.73545370318423 76.73187052578717 H 0.0 **** 0.06
3959 H 112.79662853085452 112.9671167339066 76.78057435077105 H 0.0 **** 0.06
3960 H 114.0750531318806 114.0292633243054 77.41811450798755 H 0.0 **** 0.06
3961 C 60.380076172107195 45.50474899102653 63.67436618989801 C 0.0 **** -0.24
3962 H 61.109670911948044 46.242271794715464 64.0078913986556 H 0.0 **** 0.06
3963 H 60.900997594752525 44.621449151363436 63.30299735423726 H 0.0 **** 0.06
3964 H 59.77222726726035 45.930286144686164 62.87663299868127 H 0.0 **** 0.06
3965 H 59.73940467028882 45.225110619561605 64.50999159154159 H 0.0 **** 0.06
3966 C 37.52133026842566 100.74513558228838 54.12902778166233 C 0.0 **** -0.24
3967 H 38.02226159133548 100.8563002934775 55.09145635970137 H 0.0 **** 0.06
3968 H 36.688775038436575 100.049771912456 54.23255838535661 H 0.0 **** 0.06
3969 H 38.22847917151873 100.36041986021802 53.39494492063683 H 0.0 **** 0.06
3970 H 37.14813564479067 101.7153658840136 53.80044380252467 H 0.0 **** 0.06
3971 C 112.26275649396113 87.11486329280174 21.678547745474212 C 0.0 **** -0.24
3972 H 112.36160112223055 86.68018187325285 20.683863236024337 H 0.0 **** 0.06
3973 H 112.86359715074734 86.54164261403636 22.386180526776783 H 0.0 **** 0.06
3974 H 111.21681922360072 87.08852683296797 21.983977081557462 H 0.0 **** 0.06
3975 H 112.61071447495125 88.14762795568728 21.65921225071164 H 0.0 **** 0.06
3976 C 43.78357161570952 125.30181710827549 57.72987111180446 C 0.0 **** -0.24
3977 H 44.777359495724454 125.6905971749145 57.95169800747118 H 0.0 **** 0.06
3978 H 43.0815917799936 126.13121644947375 57.63901650700967 H 0.0 **** 0.06
3979 H 43.46455038529683 124.64057577899763 58.53534042312252 H 0.0 **** 0.06
3980 H 43.81275139548977 124.74523539026177 56.79335374478549 H 0.0 **** 0.06
3981 C 6.182512614865971 54.7159187023226 114.53999139700227 C 0.0 **** -0.24
3982 H 5.162804110250086 54.89833493450578 114.8805958727375 H 0.0 **** 0.06
3983 H 6.816379631915538 55.55567691788275 114.82427681132043 H 0.0 **** 0.06
3984 H 6.187666979493073 54.60627829164224 113.45561652081068 H 0.0 **** 0.06
3985 H 6.55994094228479 53.80292280173097 114.9998857109805 H 0.0 **** 0.06
3986 C 8.9112281859028 121.19907411594659 5.599860057146341 C 0.0 **** -0.24
3987 H 8.145461029173642 121.52273281456462 6.303853028028179 H 0.0 **** 0.06
3988 H 9.897894488824608 121.36693121689447 6.0344071835986135 H 0.0 **** 0.06
3989 H 8.820096320889554 121.77084320752027 4.676397792927673 H 0.0 **** 0.06
3990 H 8.784040207083216 120.13784170897966 5.385149815513394 H 0.0 **** 0.06
3991 C 122.44513338850078 84.73476676849167 14.189222035830284 C 0.0 **** -0.24
3992 H 122.3711840310066 85.81103039870456 14.033104884160764 H 0.0 **** 0.06
3993 H 121.45851491505191 84.2840918244417 14.085933597990135 H 0.0 **** 0.06
3994 H 122.8314075377842 84.53949894589046 15.190314593092694 H 0.0 **** 0.06
3995 H 123.12075511792017 84.30678668780065 13.44886078608829 H 0.0 **** 0.06
3996 C 99.05917077020953 57.5454964171106 28.023534804851295 C 0.0 **** -0.24
3997 H 98.57510154753896 58.28077002332776 28.666825733480323 H 0.0 **** 0.06
3998 H 98.8187524990956 56.54191233635402 28.374243388264404 H 0.0 **** 0.06
3999 H 100.1385347359574 57.69219376893088 28.05163717499522 H 0.0 **** 0.06
4000 H 98.70253096795525 57.667940259162435 26.999949377124437 H 0.0 **** 0.06
4001 C 50.28777361439458 77.62473412419175 97.46033725971287 C 0.0 **** -0.24
4002 H 49.81288195279197 76.76679110236093 96.98465234575502 H 0.0 **** 0.06
4003 H 50.618870141891165 78.32708215996547 96.69561588942229 H 0.0 **** 0.06
4004 H 51.14700673151805 77.28810992909011 98.04175548924742 H 0.0 **** 0.06
4005 H 49.57251758657884 78.11571369902245 98.11998134823298 H 0.0 **** 0.06
4006 C 105.18033892364542 89.31723229146019 127.4837772218485 C 0.0 **** -0.24
4007 H 105.75922855692158 88.73484496706915 128.2007069787001 H 0.0 **** 0.06
4008 H 104.6312642857846 88.64190646437235 126.82613016772484 H 0.0 **** 0.06
4009 H 105.8539223960569 89.93422913365208 126.88977417153185 H 0.0 **** 0.06
4010 H 104.47718308776092 89.9557564470778 128.01743177033478 H 0.0 **** 0.06
4011 C 115.65324676028126 18.245541555733837 87.893931402303 C 0.0 **** -0.24
4012 H 116.5235982929799 17.675029929138844 88.21711884998763 H 0.0 **** 0.06
4013 H 114.75203881654531 17.652196258582848 88.0461747323414 H 0.0 **** 0.06
4014 H 115.75283472835486 18.491223285164097 86.83648201107229 H 0.0 **** 0.06
4015 H 115.58628210459571 19.165057450689602 88.47566565484732 H 0.0 **** 0.06
4016 C 41.015879238492204 32.833137384791684 74.60259690815658 C 0.0 **** -0.24
4017 H 41.19876879499146 32.152759483233154 73.77111884509051 H 0.0 **** 0.06
4018 H 40.17151392182384 33.47993429479027 74.36231896304528 H 0.0 **** 0.06
4019 H 41.9033886473043 33.44268488252237 74.77378800228462 H 0.0 **** 0.06
4020 H 40.7910322547574 32.25864492588923 75.49993385158453 H 0.0 **** 0.06
4021 C 90.28107499989474 41.349093522121464 84.01933300907785 C 0.0 **** -0.24
4022 H 89.81845090617871 42.298038446388844 84.2883736770458 H 0.0 **** 0.06
4023 H 89.66204860218022 40.838365757302526 83.28167797948254 H 0.0 **** 0.06
4024 H 90.37524752635383 40.725716173587344 84.90921376308381 H 0.0 **** 0.06
4025 H 91.27029823686247 41.53396831715868 83.59943513986008 H 0.0 **** 0.06
4026 C 45.673086584489454 33.302074933775025 85.86869714675447 C 0.0 **** -0.24
4027 H 45.9287193800962 33.47485779294381 84.82326306043984 H 0.0 **** 0.06
4028 H 45.551477521296874 34.25919474624285 86.37593217402602 H 0.0 **** 0.06
4029 H 46.471091809084385 32.734729963899824 86.34802045664625 H 0.0 **** 0.06
4030 H 44.741978444729114 32.737671742351864 85.92563725361097 H 0.0 **** 0.06
4031 C 49.66369721857262 2.6285417986151742 14.928141063078641 C 0.0 **** -0.24
4032 H 49.13010413489684 2.683129490908428 13.978635855405088 H 0.0 **** 0.06
4033 H 50.72627475716541 2.8057749541643666 14.7569717123137 H 0.0 **** 0.06
4034 H 49.525426328143624 1.6404601196294415 15.366331876360732 H 0.0 **** 0.06
4035 H 49.274283045907566 3.3865359176836876 15.607573894085235 H 0.0 **** 0.06
4036 C 58.313861875916956 41.0715323610911 91.79593043911186 C 0.0 **** -0.24
4037 H 57.58454824909387 40.65542678571035 92.49093062009072 H 0.0 **** 0.06
4038 H 58.15320055909798 42.145909364791294 91.70101194208084 H 0.0 **** 0.06
4039 H 58.19589833811138 40.59832576443563 90.82048404936663 H 0.0 **** 0.06
4040 H 59.32033107996119 40.884905253136424 92.17011156880281 H 0.0 **** 0.06
4041 C 55.35457563525554 85.54630735423699 12.688810235673706 C 0.0 **** -0.24
4042 H 56.42625738156927 85.34828566243387 12.721706324718554 H 0.0 **** 0.06
4043 H 54.91518484217055 85.02627113621806 11.83671774404229 H 0.0 **** 0.06
4044 H 55.18672519769616 86.61773765867243 12.587204570810254 H 0.0 **** 0.06
4045 H 54.892193714102305 85.19160784552346 13.609648254183725 H 0.0 **** 0.06
4046 C 21.76230919741421 69.92026907385213 33.09820069904225 C 0.0 **** -0.24
4047 H 21.15203607510547 69.56927912251581 32.266880566615896 H 0.0 **** 0.06
4048 H 21.199288584809793 70.65185343104139 33.678315018331816 H 0.0 **** 0.06
4049 H 22.670794369606384 70.3847458701091 32.71157994848218 H 0.0 **** 0.06
4050 H 22.02931717868053 69.07737255617889 33.73482979829055 H 0.0 **** 0.06
4051 C 96.09273023567879 84.21039456965754 98.48356709183298 C 0.0 **** -0.24
4052 H 96.26784043564744 85.0958370671311 99.09492908755766 H 0.0 **** 0.06
4053 H 95.11354507246043 84.28226253989806 98.01135123386209 H 0.0 **** 0.06
4054 H 96.12726535334431 83.32180999593122 99.114873926065 H 0.0 **** 0.06
4055 H 96.86347339475661 84.14121684122327 97.71600348686462 H 0.0 **** 0.06
4056 C 113.02823875925209 126.31201589094155 89.84427112928796 C 0.0 **** -0.24
4057 H 113.42550112277671 127.32568367731716 89.89553218165366 H 0.0 **** 0.06
4058 H 113.84644247702589 125.60873180919788 89.68609495776866 H 0.0 **** 0.06
4059 H 112.32158528505087 126.23967301238798 89.01782099917841 H 0.0 **** 0.06
4060 H 112.51976843213835 126.07257882559793 90.77902691230616 H 0.0 **** 0.06
4061 C 27.00668271584064 19.15975176324349 43.43193586192689 C 0.0 **** -0.24
4062 H 28.080043017978596 19.350389556808352 43.44295353280148 H 0.0 **** 0.06
4063 H 26.742381879503384 18.5203414979122 44.274728897253226 H 0.0 **** 0.06
4064 H 26.736113260211397 18.662610895222542 42.49945438970252 H 0.0 **** 0.06
4065 H 26.46897832084551 20.10418528109699 43.50832772834036 H 0.0 **** 0.06
4066 C 95.9442398041372 98.71513408463885 96.02605413635962 C 0.0 **** -0.24
4067 H 96.73113352882001 99.40346670011907 96.33339744671667 H 0.0 **** 0.06
4068 H 96.06293218642494 98.47700715559644 94.96832201672811 H 0.0 **** 0.06
4069 H 94.97189279217548 99.18029129504232 96.18705571384419 H 0.0 **** 0.06
4070 H 96.01238974254565 97.79978863219273 96.6144067427552 H 0.0 **** 0.06
4071 C 82.7087571410454 43.16527656958192 14.036066825344545 C 0.0 **** -0.24
4072 H 82.67419045100567 43.76942913916915 13.129061131687902 H 0.0 **** 0.06
4073 H 81.70467369150845 42.81753427933057 14.279161871033164 H 0.0 **** 0.06
4074 H 83.09439777019077 43.76773246324713 14.85888315013213 H 0.0 **** 0.06
4075 H 83.36242568631758 42.30758656863546 13.876073738655418 H 0.0 **** 0.06
4076 C 34.791442387455874 90.06733212217249 17.19059543942185 C 0.0 **** -0.24
4077 H 35.667748966362154 90.71533394370816 17.21985156291867 H 0.0 **** 0.06
4078 H 35.0548168657821 89.12058529924349 16.71892308397146 H 0.0 **** 0.06
4079 H 34.001884822808535 90.55233500340356 16.61627710648598 H 0.0 **** 0.06
4080 H 34.44147242957624 89.88256200709536 18.206456419193465 H 0.0 **** 0.06
4081 C 94.50269744737628 14.163266506473207 104.19852132926242 C 0.0 **** -0.24
4082 H 93.77891939851375 14.454559807629465 104.95928803666294 H 0.0 **** 0.06
4083 H 95.29045484285032 14.913680680651936 104.13881140598477 H 0.0 **** 0.06
4084 H 94.00264282304258 14.083637376419261 103.23308046384113 H 0.0 **** 0.06
4085 H 94.93831478529671 13.198811143602228 104.46253069171996 H 0.0 **** 0.06
4086 C 83.07361405455933 94.02708238293019 50.45280981191806 C 0.0 **** -0.24
4087 H 82.57138136182257 93.46668359267345 51.241428854030886 H 0.0 **** 0.06
4088 H 83.53717642113429 94.91758983272155 50.87791910644205 H 0.0 **** 0.06
4089 H 82.34574620746272 94.32114598010459 49.69656218599455 H 0.0 **** 0.06
4090 H 83.8412833156863 93.401432396223 49.99606202554092 H 0.0 **** 0.06
4091 C 26.429886759650863 27.866790191783338 70.61932133396007 C 0.0 **** -0.24
4092 H 26.963114599555766 26.934609917568054 70.80933593660774 H 0.0 **** 0.06
4093 H 25.641270794445873 27.99138224236694 71.36225956985088 H 0.0 **** 0.06
4094 H 25.98918875081108 27.835514031924205 69.62278907365757 H 0.0 **** 0.06
4095 H 27.125459342428798 28.702660562876844 70.68377979739248 H 0.0 **** 0.06
4096 C 66.65183181652685 78.94338571428356 34.23576191007368 C 0.0 **** -0.24
4097 H 67.6287049507711 78.88574076629936 34.714305874225545 H 0.0 **** 0.06
4098 H 66.33241330647854 79.98515538938382 34.186830132330726 H 0.0 **** 0.06
4099 H 65.92921709254864 78.3683911757131 34.814298578741585 H 0.0 **** 0.06
4100 H 66.71656149036716 78.53494884655989 33.22703504487929 H 0.0 **** 0.06
4101 C 57.60629127687051 35.22264500146224 97.22894783450417 C 0.0 **** -0.24
4102 H 58.598551892916475 34.83989515152879 96.98861279106458 H 0.0 **** 0.06
4103 H 57.612276021174665 35.63699564344532 98.23740617870668 H 0.0 **** 0.06
4104 H 56.881030642895766 34.411273439492135 97.1741698505808 H 0.0 **** 0.06
4105 H 57.334879690255065 36.002268426124715 96.5171848578355 H 0.0 **** 0.06
4106 C 93.80899721319999 110.51609799275646 63.0016409689612 C 0.0 **** -0.24
4107 H 94.70336072520786 110.5995595780132 62.384577345982734 H 0.0 **** 0.06
4108 H 93.68770407112183 109.48222381222865 63.32673739914995 H 0.0 **** 0.06
4109 H 92.93769746417806 110.81852522620927 62.42010848938327 H 0.0 **** 0.06
4110 H 93.90657948380637 111.16256101099796 63.87333397137115 H 0.0 **** 0.06
4111 C 1.2378041935184 26.524849991240643 60.553732811806725 C 0.0 **** -0.24
4112 H 1.181634887390146 27.55827279533372 60.89595319979341 H 0.0 **** 0.06
4113 H 1.4815025747408868 25.87661532333499 61.39509917074227 H 0.0 **** 0.06
4114 H 2.010725892419316 26.437177815561398 59.790200818292334 H 0.0 **** 0.06
4115 H 0.27633834261644097 26.22941043135259 60.132866569007064 H 0.0 **** 0.06
4116 C 106.54825065180205 24.34272091013826 73.9120473809894 C 0.0 **** -0.24
4117 H 105.97989827178128 24.743825362111103 74.75207556011947 H 0.0 **** 0.06
4118 H 105.87868910223665 24.173005106532827 73.06868366203855 H 0.0 **** 0.06
4119 H 107.01126007882306 23.400974010347696 74.20433908182594 H 0.0 **** 0.06
4120 H 107.3219618537789 25.054742602019004 73.62399081949337 H 0.0 **** 0.06
4121 C 8.444325393200728 51.38821400437237 5.7170454526952454 C 0.0 **** -0.24
4122 H 9.487188651818528 51.68641704036483 5.615288033499624 H 0.0 **** 0.06
4123 H 8.330684808492151 50.35057574466083 5.399227470602369 H 0.0 **** 0.06
4124 H 7.8208036456171754 52.0295176032505 5.0933060440914915 H 0.0 **** 0.06
4125 H 8.138138653347795 51.48476074477799 6.758068413086022 H 0.0 **** 0.06
4126 C 36.61985757541794 105.85305774444109 68.75896082235155 C 0.0 **** -0.24
4127 H 36.67538324869059 105.36921348637527 67.78426494473237 H 0.0 **** 0.06
4128 H 37.619470318940614 106.15423155706247 69.07253565563505 H 0.0 **** 0.06
4129 H 36.20417398426514 105.15752353996425 69.4872785626512 H 0.0 **** 0.06
4130 H 35.98024155685334 106.73295014783942 68.69140962266306 H 0.0 **** 0.06
4131 C 37.741839326838544 32.9274072883333 63.923433528372826 C 0.0 **** -0.24
4132 H 38.2508892173264 31.976866144910296 64.08376202870912 H 0.0 **** 0.06
4133 H 37.508501730189664 33.04056765696327 62.86446336905006 H 0.0 **** 0.06
4134 H 38.38938315670811 33.743892593728106 64.24285675540743 H 0.0 **** 0.06
4135 H 36.81828547006489 32.94693119500114 64.50282597927917 H 0.0 **** 0.06
4136 C 50.98263907548949 21.263061210282956 43.69783073344493 C 0.0 **** -0.24
4137 H 50.12003101924199 21.92534593040213 43.62316634533505 H 0.0 **** 0.06
4138 H 50.81154310494685 20.532793652925236 44.48888821952187 H 0.0 **** 0.06
4139 H 51.87153949935839 21.84945627346771 43.9296006939598 H 0.0 **** 0.06
4140 H 51.12550247404647 20.744998192522587 42.749330207237705 H 0.0 **** 0.06
4141 C 117.98910456251886 71.1079835306308 113.87027938276687 C 0.0 **** -0.24
4142 H 117.48550997722 70.1995933579251 114.20130396147188 H 0.0 **** 0.06
4143 H 118.2383399804877 71.02035449259671 112.81273584561264 H 0.0 **** 0.06
4144 H 118.9024875815617 71.24848542140722 114.44917333351337 H 0.0 **** 0.06
4145 H 117.3298915434786 71.96341532478613 114.01930332326178 H 0.0 **** 0.06
4146 C 82.63695864304417 36.53358355369558 86.14959569846233 C 0.0 **** -0.24
4147 H 82.8102520469821 36.20106811375063 85.12658480183134 H 0.0 **** 0.06
4148 H 81.56302304670272 36.59706522438846 86.33332934040703 H 0.0 **** 0.06
4149 H 83.08925434982841 37.5148025733462 86.29395048443982 H 0.0 **** 0.06
4150 H 83.08262875451167 35.82085935493503 86.84377857021674 H 0.0 **** 0.06
4151 C 54.26358110288007 64.58027682157089 115.55570736620669 C 0.0 **** -0.24
4152 H 54.66471693218293 63.77118827837322 114.9450861566238 H 0.0 **** 0.06
4153 H 54.39136832922867 64.33655199261094 116.61104436382993 H 0.0 **** 0.06
4154 H 53.20340689566811 64.70794196289327 115.33703470958636 H 0.0 **** 0.06
4155 H 54.79520327850318 65.50467581861912 115.32911555835432 H 0.0 **** 0.06
4156 C 2.264485813953179 130.88898022032552 50.070744206038356 C 0.0 **** -0.24
4157 H 2.6003498925686905 131.77013876194363 49.523389242341764 H 0.0 **** 0.06
4158 H 2.66332599087513 129.99243476910445 49.59608618129202 H 0.0 **** 0.06
4159 H 1.1750140351892426 130.85134468799313 50.063174692279674 H 0.0 **** 0.06
4160 H 2.6184136955056694 130.9452113366263 51.10032159782442 H 0.0 **** 0.06
4161 C 91.3265503516995 111.79178598609383 38.92650534808058 C 0.0 **** -0.24
4162 H 91.97770896556042 110.92668611803839 38.809257582921305 H 0.0 **** 0.06
4163 H 91.80109313766431 112.5167334287058 39.58856340670451 H 0.0 **** 0.06
4164 H 90.37569954774854 111.47571219276816 39.355945209118005 H 0.0 **** 0.06
4165 H 91.15162329188057 112.24915694737037 37.95308213357342 H 0.0 **** 0.06
4166 C 119.57262173030298 32.43720587555103 58.84020439077341 C 0.0 **** -0.24
4167 H 118.83873227193098 33.20490962204154 58.594941896802766 H 0.0 **** 0.06
4168 H 120.53059739956771 32.69153362328252 58.386618141414885 H 0.0 **** 0.06
4169 H 119.23265373468956 31.474604709287505 58.45657267121224 H 0.0 **** 0.06
4170 H 119.68677328873775 32.37679234018999 59.92288446328209 H 0.0 **** 0.06
4171 C 86.91665408648433 123.9308787286688 64.6232756878083 C 0.0 **** -0.24
4172 H 86.66942512899064 124.27303840319551 65.62778254219575 H 0.0 **** 0.06
4173 H 87.18590282012477 124.78697282164265 64.0048151143532 H 0.0 **** 0.06
4174 H 86.05394229323136 123.42601863646175 64.18901413256278 H 0.0 **** 0.06
4175 H 87.7572981363596 123.23883721061539 64.67190264384463 H 0.0 **** 0.06
4176 C 23.84642042301057 4.87399921789887 98.98343968775585 C 0.0 **** -0.24
4177 H 24.009472280410478 4.3863151597620345 98.02181196380697 H 0.0 **** 0.06
4178 H 24.737002123761087 4.76437260730836 99.60211706711203 H 0.0 **** 0.06
4179 H 22.995804111800886 4.411318699197409 99.48424515553005 H 0.0 **** 0.06
4180 H 23.642002366971695 5.932641598957332 98.82254825388793 H 0.0 **** 0.06
4181 C 110.520957013913 27.0266231102416 29.549304814177532 C 0.0 **** -0.24
4182 H 111.38355962800921 26.454712676981792 29.205734271427843 H 0.0 **** 0.06
4183 H 110.81895035025354 28.0605361100202 29.728724585610593 H 0.0 **** 0.06
4184 H 110.14127175509896 26.59155728555281 30.47366042184865 H 0.0 **** 0.06
4185 H 109.74128015115915 26.999322129143586 28.787940165801388 H 0.0 **** 0.06
4186 C 116.22577939196043 104.11570246221167 86.54814226722544 C 0.0 **** -0.24
4187 H 116.44384822343392 103.81599291711088 87.57290985592569 H 0.0 **** 0.06
4188 H 117.03167978446879 103.78477452401437 85.89277004546973 H 0.0 **** 0.06
4189 H 116.13830077540592 105.20097863182778 86.49770822741674 H 0.0 **** 0.06
4190 H 115.28803773178976 103.66121600652171 86.22853921992623 H 0.0 **** 0.06
4191 C 72.30972788830822 94.75605737547167 92.04910590599476 C 0.0 **** -0.24
4192 H 71.39234114822109 95.3184039170167 92.22424992854391 H 0.0 **** 0.06
4193 H 73.12797456408751 95.44809005787721 91.8509050171548 H 0.0 **** 0.06
4194 H 72.17332355828144 94.09865214661897 91.18974989165282 H 0.0 **** 0.06
4195 H 72.542788091058 94.15778218617814 92.92974782607635 H 0.0 **** 0.06
4196 C 103.44987697413745 6.73191224725943 119.0610587422843 C 0.0 **** -0.24
4197 H 104.08281848480505 7.404704576976982 119.63902755683944 H 0.0 **** 0.06
4198 H 102.50986745456947 6.572409874289761 119.59208202839537 H 0.0 **** 0.06
4199 H 103.95857404251927 5.776956503062493 118.92841523371445 H 0.0 **** 0.06
4200 H 103.24494670874145 7.1735816998125586 118.08576024421504 H 0.0 **** 0.06
4201 C 32.8315917936959 92.9870570555485 47.793913807485545 C 0.0 **** -0.24
4202 H 33.31495542178848 93.3741767114581 48.69099042231046 H 0.0 **** 0.06
4203 H 32.17099343105519 93.74960243574208 47.380322388319534 H 0.0 **** 0.06
4204 H 32.250697685542015 92.1004852570554 48.047353992171615 H 0.0 **** 0.06
4205 H 33.591259183554904 92.72586913853458 47.057042849262515 H 0.0 **** 0.06
4206 C 99.44374604490292 47.966751906390066 99.89208398571147 C 0.0 **** -0.24
4207 H 99.9400582137443 47.03725554748899 100.17240213050633 H 0.0 **** 0.06
4208 H 98.48554608841383 48.035402577843854 100.40893164608293 H 0.0 **** 0.06
4209 H 99.27813540390139 47.979985778372196 98.81576138709482 H 0.0 **** 0.06
4210 H 100.0702259001147 48.812542246301035 100.17434650262764 H 0.0 **** 0.06
4211 C 44.689288987094585 123.5668680378003 100.60232870798525 C 0.0 **** -0.24
4212 H 44.6491790323434 123.44026390146456 99.52030834274439 H 0.0 **** 0.06
4213 H 45.699271207699155 123.360675911761 100.95455180358678 H 0.0 **** 0.06
4214 H 43.990989000391636 122.8753024217417 101.07485030136834 H 0.0 **** 0.06
4215 H 44.415247332656776 124.59055004880088 100.85774951889444 H 0.0 **** 0.06
4216 C 58.81941938405731 47.48538639315049 4.986600189830156 C 0.0 **** -0.24
4217 H 58.048815355520276 47.79345402811417 5.693075397215679 H 0.0 **** 0.06
4218 H 58.67187170879811 46.43831552780214 4.72277309604652 H 0.0 **** 0.06
4219 H 59.80176015366504 47.61090931534292 5.443697735985552 H 0.0 **** 0.06
4220 H 58.75520358982203 48.09988690273322 4.088574616846703 H 0.0 **** 0.06
4221 C 15.303689570053479 54.955139438556984 116.49279246340244 C 0.0 **** -0.24
4222 H 15.28632833319702 54.10252006854935 115.81310994189076 H 0.0 **** 0.06
4223 H 15.633403988708977 55.84294113787942 115.95272113366376 H 0.0 **** 0.06
4224 H 15.991273275733164 54.751825328702466 117.31372637462802 H 0.0 **** 0.06
4225 H 14.301668335764475 55.121801329247575 116.89003271176516 H 0.0 **** 0.06
4226 C 85.66659906889751 113.36488756001602 67.0127943981721 C 0.0 **** -0.24
4227 H 84.67128513509635 113.01372783345046 67.28539758771649 H 0.0 **** 0.06
4228 H 86.38140510954739 113.06111382328343 67.77816382655988 H 0.0 **** 0.06
4229 H 85.65809358333897 114.45223059271139 66.9329176630016 H 0.0 **** 0.06
4230 H 85.95364548431988 112.93256928709052 66.05434788144782 H 0.0 **** 0.06
4231 C 120.21907185604613 107.49600471482836 8.48748004484537 C 0.0 **** -0.24
4232 H 120.56146189406286 106.66659469005151 7.868598355103273 H 0.0 **** 0.06
4233 H 121.01113890528842 107.78339487797109 9.179896267990046 H 0.0 **** 0.06
4234 H 119.33790563851812 107.18838402428355 9.051615796557854 H 0.0 **** 0.06
4235 H 119.96632642382247 108.34361635912592 7.851069270123247 H 0.0 **** 0.06
4236 C 14.426864701081655 28.959210194489756 110.61307455232384 C 0.0 **** -0.24
4237 H 14.493754716409171 30.034485179036743 110.4457277976895 H 0.0 **** 0.06
4238 H 14.419187515657484 28.442097535957622 109.65390043152763 H 0.0 **** 0.06
4239 H 13.509976893660621 28.732043543073303 111.1566161879378 H 0.0 **** 0.06
4240 H 15.286758076904448 28.62865364101674 111.1969951832877 H 0.0 **** 0.06
4241 C 94.95133099185429 125.235048995798 117.83606765206589 C 0.0 **** -0.24
4242 H 94.71054118338213 124.22398122198805 117.5076674487405 H 0.0 **** 0.06
4243 H 96.02038127952181 125.41079990059322 117.71645339945488 H 0.0 **** 0.06
4244 H 94.67946806237637 125.34998800049615 118.8856218788635 H 0.0 **** 0.06
4245 H 94.39478979329569 125.95410389457149 117.23632493627541 H 0.0 **** 0.06
4246 C 43.3723628003694 72.90912095674398 111.86774400592233 C 0.0 **** -0.24
4247 H 43.17635472580587 73.65024773253882 111.09330526096821 H 0.0 **** 0.06
4248 H 42.97686897614627 73.26490917335342 112.81962472540587 H 0.0 **** 0.06
4249 H 44.44784798156416 72.75218362499417 111.95539568992206 H 0.0 **** 0.06
4250 H 42.88917532735769 71.9687716632204 111.60154188525402 H 0.0 **** 0.06
4251 C 24.8938993688976 106.77096931111124 124.84756244669614 C 0.0 **** -0.24
4252 H 23.973331047759714 106.2250414212776 124.64116192861691 H 0.0 **** 0.06
4253 H 25.707449321733677 106.34708015609287 124.25829428516425 H 0.0 **** 0.06
4254 H 25.1325529973698 106.69024267135978 125.90865490115492 H 0.0 **** 0.06
4255 H 24.761757763875003 107.82028819338365 124.58393971429263 H 0.0 **** 0.06
4256 C 125.10307274646709 81.79725581215428 24.78055580900633 C 0.0 **** -0.24
4257 H 124.57344262149337 82.74227476126259 24.661746874951092 H 0.0 **** 0.06
4258 H 124.38760930674738 81.00496945774498 24.999979711784704 H 0.0 **** 0.06
4259 H 125.8165711195669 81.88099674799233 25.601367049907168 H 0.0 **** 0.06
4260 H 125.63607792030194 81.56073857339885 23.859230354382873 H 0.0 **** 0.06
4261 C 99.50087136770135 70.69619151713698 73.64979818393918 C 0.0 **** -0.24
4262 H 100.44439779368531 70.35242367275623 73.22538088075312 H 0.0 **** 0.06
4263 H 99.01113669434787 69.869427781875 74.16372241134712 H 0.0 **** 0.06
4264 H 98.85518341233022 71.06222597521179 72.85179737761513 H 0.0 **** 0.06
4265 H 99.69356348966194 71.50181753892707 74.35859572503017 H 0.0 **** 0.06
4266 C 77.25982791165458 125.0760946236732 52.863435811099905 C 0.0 **** -0.24
4267 H 76.96407241910273 124.14386657393673 53.34484938741822 H 0.0 **** 0.06
4268 H 76.37117911408112 125.66839600088407 52.64129630245115 H 0.0 **** 0.06
4269 H 77.7888535074105 124.85415373736058 51.936105403068694 H 0.0 **** 0.06
4270 H 77.91409259978033 125.63804809155728 53.52931225572526 H 0.0 **** 0.06
4271 C 20.140535831902042 93.30662144878397 83.93957460290989 C 0.0 **** -0.24
4272 H 21.19027216019964 93.05121579252074 84.08715207168086 H 0.0 **** 0.06
4273 H 20.067813034386518 94.29571615376801 83.48637533282636 H 0.0 **** 0.06
4274 H 19.627856796270436 93.30733281067694 84.90092943375487 H 0.0 **** 0.06
4275 H 19.677498156556425 92.57038486581946 83.28185480891352 H 0.0 **** 0.06
4276 C 68.48769836352393 126.81247548593507 80.78544453677229 C 0.0 **** -0.24
4277 H 67.5621950351373 126.50524174756839 81.2723351648543 H 0.0 **** 0.06
4278 H 68.7623827853452 127.81134998972635 81.1243997892411 H 0.0 **** 0.06
4279 H 68.34302688794153 126.8217360041138 79.70491461944852 H 0.0 **** 0.06
4280 H 69.28251154149056 126.11058744372701 81.03937503930516 H 0.0 **** 0.06
4281 C 35.33921692920763 26.637353419314422 4.723046440500976 C 0.0 **** -0.24
4282 H 34.387787394105125 26.76537026046833 5.240059054333393 H 0.0 **** 0.06
4283 H 35.21244755663341 26.875522039668056 3.6662698386136405 H 0.0 **** 0.06
4284 H 35.6717947125505 25.6038709171213 4.825445002970238 H 0.0 **** 0.06
4285 H 36.08294079610603 27.30313508053314 5.16008879490348 H 0.0 **** 0.06
4286 C 107.12152477420564 123.5836486748121 55.30131714313727 C 0.0 **** -0.24
4287 H 107.4515821141542 122.93253182408097 56.11168653538273 H 0.0 **** 0.06
4288 H 106.65473336127799 122.98352534042262 54.52087228541643 H 0.0 **** 0.06
4289 H 107.98134066888119 124.11244835230114 54.888754354026915 H 0.0 **** 0.06
4290 H 106.40143135115929 124.30438559452477 55.68663277045509 H 0.0 **** 0.06
4291 C 78.28008295015553 105.10132377611126 98.3433960018348 C 0.0 **** -0.24
4292 H 78.03493175996391 106.06583263326638 98.78653475246799 H 0.0 **** 0.06
4293 H 77.7207335730439 104.97488628610995 97.41686631474113 H 0.0 **** 0.06
4294 H 78.01756372826173 104.30459000649677 99.03920230668987 H 0.0 **** 0.06
4295 H 79.34917134156223 105.06083474560575 98.13101377907091 H 0.0 **** 0.06
4296 C 33.42378860632135 71.2957669894196 23.14994891962013 C 0.0 **** -0.24
4297 H 32.43662838229929 71.67962544771844 22.89329385248763 H 0.0 **** 0.06
4298 H 34.10981641625657 72.12915711035511 23.301353079531196 H 0.0 **** 0.06
4299 H 33.79073754100955 70.6661526475507 22.33976024147674 H 0.0 **** 0.06
4300 H 33.35835455597162 70.70718646579904 24.066367469094985 H 0.0 **** 0.06
4301 C 14.102707182879215 84.91529997984993 34.4006973727918 C 0.0 **** -0.24
4302 H 13.305453815092108 85.34140679780421 33.792184857417 H 0.0 **** 0.06
4303 H 15.063420287540907 85.30618503822207 34.06538158634788 H 0.0 **** 0.06
4304 H 14.09651817909014 83.82988347322939 34.30025245428061 H 0.0 **** 0.06
4305 H 13.944094144290887 85.18476360308401 35.445315379221256 H 0.0 **** 0.06
4306 C 0.36163440361501564 46.17781549392471 116.14225764972235 C 0.0 **** -0.24
4307 H 0.4822852212346529 45.188621637704856 116.58338613402844 H 0.0 **** 0.06
4308 H 0.8482253574265073 46.91890176534936 116.77618022922172 H 0.0 **** 0.06
4309 H -0.7004698973580634 46.41079867940497 116.0589580400196 H 0.0 **** 0.06
4310 H 0.8157986642752988 46.19217991650858 115.15147313296777 H 0.0 **** 0.06
4311 C 89.44407996995898 84.57619311345337 119.10445345253682 C 0.0 **** -0.24
4312 H 88.93894595355363 85.46812793313148 118.73338959143516 H 0.0 **** 0.06
4313 H 90.43889053127796 84.84453897847158 119.46190273229432 H 0.0 **** 0.06
4314 H 89.53169649768219 83.84658876249648 118.2993805943637 H 0.0 **** 0.06
4315 H 88.86816351069785 84.14584066652515 119.92312885685519 H 0.0 **** 0.06
4316 C 105.66035751604969 122.410054756162 61.78917835287169 C 0.0 **** -0.24
4317 H 104.60113883512145 122.40585248952353 61.535664069452196 H 0.0 **** 0.06
4318 H 105.8741458812818 121.5882114672403 62.47317591306009 H 0.0 **** 0.06
4319 H 105.91620182641724 123.35668044067226 62.26566864630453 H 0.0 **** 0.06
4320 H 106.25146657571126 122.28981573941553 60.88031685161789 H 0.0 **** 0.06
4321 C 101.6558714220049 128.67709181151065 106.25873129145779 C 0.0 **** -0.24
4322 H 101.93821340898398 129.71951651968695 106.4022936013595 H 0.0 **** 0.06
4323 H 100.67363319412908 128.62715522291964 105.78734721449334 H 0.0 **** 0.06
4324 H 101.62084413788094 128.17430099446156 107.22564338695474 H 0.0 **** 0.06
4325 H 102.39050582814386 128.18539892090098 105.62060756442051 H 0.0 **** 0.06
4326 C 11.05592269698137 98.47518449283825 3.051686709150914 C 0.0 **** -0.24
4327 H 11.816107180919943 97.71348105480246 3.225367163051544 H 0.0 **** 0.06
4328 H 11.15811387470778 99.26685500040998 3.7948551406711175 H 0.0 **** 0.06
4329 H 10.06644520243502 98.02580117668253 3.1321935937553746 H 0.0 **** 0.06
4330 H 11.183480201458678 98.89542714452995 2.0532775968485737 H 0.0 **** 0.06
4331 C 84.95608019559572 37.18161973568533 66.09199928662748 C 0.0 **** -0.24
4332 H 85.94607017177583 36.755740187587975 66.25519219785484 H 0.0 **** 0.06
4333 H 84.67564025912063 37.06111454026157 65.04534727181804 H 0.0 **** 0.06
4334 H 84.97054019970348 38.242739683475975 66.34504859550078 H 0.0 **** 0.06
4335 H 84.23164715419577 36.668090731352095 66.72424386592886 H 0.0 **** 0.06
4336 C 12.716208274551633 57.76874669626898 118.45878664332832 C 0.0 **** -0.24
4337 H 12.376085610958228 58.38356655215176 119.29211946383933 H 0.0 **** 0.06
4338 H 12.788227515111686 56.729383978054244 118.7800869262473 H 0.0 **** 0.06
4339 H 13.693355813701004 58.11658310296525 118.12622703137174 H 0.0 **** 0.06
4340 H 12.00406467402425 57.84661269031264 117.63693514849061 H 0.0 **** 0.06
4341 C 101.51350496277759 41.09309831491362 102.25333354371742 C 0.0 **** -0.24
4342 H 101.73214953329622 40.64549735663387 103.22290995161008 H 0.0 **** 0.06
4343 H 102.13200163056867 41.98078593440249 102.11675722036075 H 0.0 **** 0.06
4344 H 100.46082013519224 41.3731157293995 102.21107973533172 H 0.0 **** 0.06
4345 H 101.73091850349729 40.373408933912685 101.46374121282267 H 0.0 **** 0.06
4346 C 89.60372917540485 93.60327454990268 38.3395568075604 C 0.0 **** -0.24
4347 H 89.00831728385643 93.58969790858897 39.25250523320827 H 0.0 **** 0.06
4348 H 90.21652015308936 94.50487443870652 38.31917624229021 H 0.0 **** 0.06
4349 H 88.94168294603914 93.5931293971848 37.47409490878934 H 0.0 **** 0.06
4350 H 90.24855267411844 92.7248569211698 38.314089328152164 H 0.0 **** 0.06
4351 C 51.933307783850594 99.64366603696578 73.94875467612266 C 0.0 **** -0.24
4352 H 52.45569883159658 99.2284588260099 74.81080110889548 H 0.0 **** 0.06
4353 H 52.240618313491126 100.6785545847452 73.80187601724482 H 0.0 **** 0.06
4354 H 50.85752645360425 99.60396072536923 74.12247439571338 H 0.0 **** 0.06
4355 H 52.18024338484193 99.0606898389538 73.06099283919025 H 0.0 **** 0.06
4356 C 63.186640499765744 10.429159529477857 64.11958192664927 C 0.0 **** -0.24
4357 H 63.65708485542753 9.556483073594364 64.57270264644353 H 0.0 **** 0.06
4358 H 62.21168176078497 10.5943611020991 64.57912454537042 H 0.0 **** 0.06
4359 H 63.06075681935239 10.260520869204726 63.05038141419253 H 0.0 **** 0.06
4360 H 63.81707284811256 11.304308166189486 64.27813604360739 H 0.0 **** 0.06
4361 C 44.93751307783904 87.51277775032707 76.27681873559695 C 0.0 **** -0.24
4362 H 44.821916182051694 86.67221534186713 75.59281533931 H 0.0 **** 0.06
4363 H 45.375229601886986 88.35689705570884 75.74206325496044 H 0.0 **** 0.06
4364 H 45.59126177570917 87.22438370240906 77.09990681040625 H 0.0 **** 0.06
4365 H 43.961715335925334 87.79822758280687 76.66955352973972 H 0.0 **** 0.06
4366 C 64.28976142625609 17.6814758840909 56.844152636171714 C 0.0 **** -0.24
4367 H 64.00271613121376 17.666078554169644 57.895608481870994 H 0.0 **** 0.06
4368 H 63.49467398228822 17.24142013146229 56.24334377560734 H 0.0 **** 0.06
4369 H 65.20710237674388 17.108613365956614 56.70974442999628 H 0.0 **** 0.06
4370 H 64.45577899717202 18.712437074785385 56.52862012526526 H 0.0 **** 0.06
4371 C 14.731649440663318 19.951882056332103 38.93638932304892 C 0.0 **** -0.24
4372 H 14.5177581189443 18.90379338830521 39.14813721699868 H 0.0 **** 0.06
4373 H 14.701366367918581 20.119316841192344 37.85961357365646 H 0.0 **** 0.06
4374 H 15.72170643345089 20.203638755421345 39.31611839433383 H 0.0 **** 0.06
4375 H 13.985118325670499 20.579764633263792 39.42357232540408 H 0.0 **** 0.06
4376 C 15.822195418685723 59.29974846625436 122.50586085263248 C 0.0 **** -0.24
4377 H 16.769862044895802 59.02959328636558 122.97185615290154 H 0.0 **** 0.06
4378 H 15.042099033978474 58.618331456014204 122.84773517306219 H 0.0 **** 0.06
4379 H 15.917331013445903 59.229413165305175 121.42189836141016 H 0.0 **** 0.06
4380 H 15.560035847448404 60.320475174707354 122.7825082128427 H 0.0 **** 0.06
4381 C 115.54012864202338 35.318556529394726 52.71555267982694 C 0.0 **** -0.24
4382 H 115.40552785462722 36.4007646942583 52.714745112271004 H 0.0 **** 0.06
4383 H 114.57296413679796 34.833319405563685 52.58010422092556 H 0.0 **** 0.06
4384 H 115.97236001371436 35.00788323370037 53.66686315871564 H 0.0 **** 0.06
4385 H 116.2074228601445 35.03479156746917 51.90210120050767 H 0.0 **** 0.06
4386 C 3.830523649036195 122.08910414616574 34.25084307654157 C 0.0 **** -0.24
4387 H 3.6750340331361144 122.89823664740292 34.963643174971594 H 0.0 **** 0.06
4388 H 2.9225105926196306 121.48954566794175 34.17879136735658 H 0.0 **** 0.06
4389 H 4.654937334553608 121.46056881139829 34.58913427749977 H 0.0 **** 0.06
4390 H 4.069395852889102 122.5060359343423 33.27315787730757 H 0.0 **** 0.06
4391 C 54.19256788810992 16.211706455382284 2.7636123658230076 C 0.0 **** -0.24
4392 H 54.38113144881625 17.28428982117282 2.7233116287699772 H 0.0 **** 0.06
4393 H 54.66839807549469 15.726391066445927 1.9111763840032268 H 0.0 **** 0.06
4394 H 53.11806113732338 16.03032844332506 2.732056877783407 H 0.0 **** 0.06
4395 H 54.60231247816516 15.806446562310526 3.6894753844988344 H 0.0 **** 0.06
4396 C 86.77281344862709 102.9576269336431 54.91128624844235 C 0.0 **** -0.24
4397 H 85.71628187515758 102.69254922560822 54.86429318597281 H 0.0 **** 0.06
4398 H 87.36457598511356 102.05865438256154 55.08943796099132 H 0.0 **** 0.06
4399 H 86.93379780827006 103.66541569086354 55.72440775084935 H 0.0 **** 0.06
4400 H 87.07625089146208 103.41180729576757 53.968250532031036 H 0.0 **** 0.06
4401 C 105.95051457020833 89.80795190954105 66.75378736699159 C 0.0 **** -0.24
4402 H 105.44628301425092 89.93911422988404 67.71182051843176 H 0.0 **** 0.06
4403 H 105.29297270919864 90.13828830912873 65.94910414738975 H 0.0 **** 0.06
4404 H 106.1961204932993 88.75529460276225 66.61447915231066 H 0.0 **** 0.06
4405 H 106.86544282377145 90.39937274348416 66.74129346561962 H 0.0 **** 0.06
4406 C 17.59276202314058 56.103751173059266 103.08839741193827 C 0.0 **** -0.24
4407 H 18.67100364741355 56.25943024731153 103.13379058191256 H 0.0 **** 0.06
4408 H 17.381736485365757 55.18647921290501 102.5386330565837 H 0.0 **** 0.06
4409 H 17.12495840946533 56.94744302580858 102.58025929223261 H 0.0 **** 0.06
4410 H 17.194836124260185 56.02202203719973 104.09962081393665 H 0.0 **** 0.06
4411 C 18.945783723791948 2.824942831032999 20.559881320366515 C 0.0 **** -0.24
4412 H 18.89278739142756 1.9742684085924047 21.2386337293554 H 0.0 **** 0.06
4413 H 19.308734262386963 3.6989779931594633 21.100130226012595 H 0.0 **** 0.06
4414 H 17.953380840145115 3.0314955953547447 20.15779550469574 H 0.0 **** 0.06
4415 H 19.627804412508198 2.5945437537119567 19.740825418642203 H 0.0 **** 0.06
4416 C 57.14752413785445 51.81013195424248 57.87875960150356 C 0.0 **** -0.24
4417 H 57.038849425987664 51.32310146335249 56.90893401938703 H 0.0 **** 0.06
4418 H 58.10332469077193 51.5279903578637 58.3208703582911 H 0.0 **** 0.06
4419 H 56.33567828995726 51.49808352580874 58.53444281107775 H 0.0 **** 0.06
4420 H 57.113700521439824 52.8920076675995 57.74673526535267 H 0.0 **** 0.06
4421 C 15.24340139143797 101.77232573821404 73.46773241272419 C 0.0 **** -0.24
4422 H 15.024799365970438 102.0987185470121 74.48508113683751 H 0.0 **** 0.06
4423 H 14.580455563118448 100.94860417348792 73.20109757168824 H 0.0 **** 0.06
4424 H 16.27875087491816 101.4391725882607 73.4074513225086 H 0.0 **** 0.06
4425 H 15.087082108816901 102.60308867007947 72.77890677625612 H 0.0 **** 0.06
4426 C 26.89575913782646 122.81208869448291 66.95236225040453 C 0.0 **** -0.24
4427 H 26.474465263518567 121.9140762335464 66.5003693663023 H 0.0 **** 0.06
4428 H 26.195892857892048 123.64025074593177 66.83301662858969 H 0.0 **** 0.06
4429 H 27.83747806990472 123.05850213077 66.46054783864518 H 0.0 **** 0.06
4430 H 27.075129534834872 122.63591638322094 68.01254147867087 H 0.0 **** 0.06
4431 C 17.981115910777646 70.97954307902236 109.0410715518133 C 0.0 **** -0.24
4432 H 18.376594593378456 70.52728146631455 109.95054915704984 H 0.0 **** 0.06
4433 H 18.80705927048473 71.27743585560722 108.39576086099865 H 0.0 **** 0.06
4434 H 17.387683339641484 71.85548865905113 109.30027902024844 H 0.0 **** 0.06
4435 H 17.35359272091253 70.2565457488561 108.51935993657847 H 0.0 **** 0.06
4436 C 17.334745406926118 54.64812492444614 37.777246214650376 C 0.0 **** -0.24
4437 H 17.57848817651609 53.7213019716032 38.29624248373065 H 0.0 **** 0.06
4438 H 18.105178778365243 55.39238330187469 37.98097988249492 H 0.0 **** 0.06
4439 H 16.370229484838656 55.0172687339749 38.12799175812779 H 0.0 **** 0.06
4440 H 17.28341105745261 54.461445891333184 36.70486048234639 H 0.0 **** 0.06
4441 C 60.86562669137055 33.73707437741069 46.06688598257412 C 0.0 **** -0.24
4442 H 61.23466740047982 32.738828363336296 45.82999495430225 H 0.0 **** 0.06
4443 H 60.199302760016025 33.682003513034715 46.927829125842344 H 0.0 **** 0.06
4444 H 60.323089334225756 34.13631384604096 45.21003446510727 H 0.0 **** 0.06
4445 H 61.70753623627928 34.389183330808294 46.300558257267504 H 0.0 **** 0.06
4446 C 122.83110928117824 127.71598386492559 55.980063884756106 C 0.0 **** -0.24
4447 H 122.66462019227079 128.58577838462168 55.34569706107763 H 0.0 **** 0.06
4448 H 123.12997338515238 126.86815375414807 55.363591805714606 H 0.0 **** 0.06
4449 H 121.9103169411163 127.47246298086708 56.51078655783894 H 0.0 **** 0.06
4450 H 123.61878784842604 127.93701209663254 56.700598745275116 H 0.0 **** 0.06
4451 C 50.026616063533666 30.87763884394286 2.3877440157418164 C 0.0 **** -0.24
4452 H 50.708801562905904 30.552617508660916 1.6017258308378644 H 0.0 **** 0.06
4453 H 50.51466278957669 31.635779426169762 3.0005945241105394 H 0.0 **** 0.06
4454 H 49.75770802365332 30.023623331188276 3.010273132267372 H 0.0 **** 0.06
4455 H 49.127253108579566 31.29618726491259 1.9371012425949061 H 0.0 **** 0.06
4456 C 129.64496958671234 129.70254809636907 17.893696040899925 C 0.0 **** -0.24
4457 H 130.22707737610466 128.92758999738058 17.395441174737314 H 0.0 **** 0.06
4458 H 128.72203827708918 129.2698345342813 18.281464417083626 H 0.0 **** 0.06
4459 H 129.40496395764316 130.49115534213016 17.180371155106585 H 0.0 **** 0.06
4460 H 130.2253395764024 130.1202276367375 18.716573895552017 H 0.0 **** 0.06
4461 C 116.65393169088262 80.27389547752897 39.289081661166755 C 0.0 **** -0.24
4462 H 115.96756460398704 79.63436692685458 39.842925370063625 H 0.0 **** 0.06
4463 H 117.59954018867705 79.75152649234643 39.14135311035396 H 0.0 **** 0.06
4464 H 116.82994565551955 81.19164398011004 39.85101163064924 H 0.0 **** 0.06
4465 H 116.21947792380972 80.52058652612526 38.320089945211585 H 0.0 **** 0.06
4466 C 5.201979149479882 11.235046232027983 95.59367839445275 C 0.0 **** -0.24
4467 H 5.289378790578212 12.226464421808913 95.14724268427085 H 0.0 **** 0.06
4468 H 5.107183453144785 10.48953574467997 94.80419479342727 H 0.0 **** 0.06
4469 H 4.321848783963958 11.200605548869774 96.23427010589299 H 0.0 **** 0.06
4470 H 6.092136549842564 11.025507684737732 96.18717303885086 H 0.0 **** 0.06
4471 C 122.22832800813961 120.22277861817764 40.22508199382109 C 0.0 **** -0.24
4472 H 121.659704151098 119.55782662834798 40.87512678249125 H 0.0 **** 0.06
4473 H 122.32063673988287 121.20132374170043 40.697023778341574 H 0.0 **** 0.06
4474 H 121.71191390878406 120.32659489387771 39.27080209303725 H 0.0 **** 0.06
4475 H 123.22111425090631 119.80493082971321 40.05647831044805 H 0.0 **** 0.06
4476 C 96.47753601425836 44.149047670304725 100.11624625639067 C 0.0 **** -0.24
4477 H 97.36363293425887 43.609083340305965 99.78234919632118 H 0.0 **** 0.06
4478 H 96.19325963545799 43.800791909609714 101.10955656644686 H 0.0 **** 0.06
4479 H 95.65933196742503 43.969679048962334 99.41972530863566 H 0.0 **** 0.06
4480 H 96.69615114244652 45.216587851799524 100.15348731570951 H 0.0 **** 0.06
4481 C 128.00629621245972 113.09614226527525 129.58599710250562 C 0.0 **** -0.24
4482 H 127.5441926328454 113.26493753790747 130.55841413272674 H 0.0 **** 0.06
4483 H 128.4347236794981 114.02995109360963 129.22050906606822 H 0.0 **** 0.06
4484 H 127.25248412514799 112.74197381279818 128.88232633139498 H 0.0 **** 0.06
4485 H 128.79322152921634 112.34826335558218 129.6821279293905 H 0.0 **** 0.06
4486 C 89.58986284067626 26.780253156825708 13.408047115093552 C 0.0 **** -0.24
4487 H 90.51217814102196 26.198838886822557 13.40619317095451 H 0.0 **** 0.06
4488 H 88.76617134369423 26.15524840922305 13.06151297036621 H 0.0 **** 0.06
4489 H 89.70006548116069 27.63806792068712 12.744048830205031 H 0.0 **** 0.06
4490 H 89.38240878906504 27.12839035918671 14.419485559314978 H 0.0 **** 0.06
4491 C 29.810807011219083 47.16694057956704 28.3840399300488 C 0.0 **** -0.24
4492 H 30.798830845186984 47.461884500055135 28.737742442528003 H 0.0 **** 0.06
4493 H 29.5124924056974 46.23961922402637 28.875205975784326 H 0.0 **** 0.06
4494 H 29.841993423192548 47.013993610256335 27.30606265444854 H 0.0 **** 0.06
4495 H 29.09225429925081 47.95124816251956 28.61988315722195 H 0.0 **** 0.06
4496 C 41.84329118502784 111.3252732546545 113.78779351888363 C 0.0 **** -0.24
4497 H 41.0304131970925 111.96253946083088 114.13630842849187 H 0.0 **** 0.06
4498 H 41.86168985698674 111.32391320559299 112.69765492925586 H 0.0 **** 0.06
4499 H 41.687905145503294 110.3090098826842 114.15081478787522 H 0.0 **** 0.06
4500 H 42.791856129148556 111.70578577063041 114.16692971236029 H 0.0 **** 0.06
4501 C 2.5652468808533513 128.0690490205266 46.50635637218727 C 0.0 **** -0.24
4502 H 2.657417738284554 128.54999022971245 45.531980870739574 H 0.0 **** 0.06
4503 H 3.233621574633659 128.55591522046993 47.216077448519 H 0.0 **** 0.06
4504 H 2.833696902983217 127.01621643917414 46.41708357299467 H 0.0 **** 0.06
4505 H 1.5372033950984623 128.15371116654953 46.8572898863066 H 0.0 **** 0.06
4506 C 103.94277020933126 23.431008117356328 14.657509462451891 C 0.0 **** -0.24
4507 H 104.02990030088073 24.51698654683554 14.640286828906348 H 0.0 **** 0.06
4508 H 104.80142780244995 23.006104409841953 15.178497477460827 H 0.0 **** 0.06
4509 H 103.91255713544331 23.052495031024876 13.636506817503832 H 0.0 **** 0.06
4510 H 103.02690441063204 23.148801994616463 15.176935127162075 H 0.0 **** 0.06
4511 C 70.51631805769719 29.761266887148082 83.56887633598708 C 0.0 **** -0.24
4512 H 70.46889195496968 30.840714922918295 83.70913009888963 H 0.0 **** 0.06
4513 H 69.62835559457423 29.425641461121558 83.03275160025763 H 0.0 **** 0.06
4514 H 70.56087316179787 29.27005051536358 84.54159513626766 H 0.0 **** 0.06
4515 H 71.40690556713966 29.50830264869299 82.99337441157812 H 0.0 **** 0.06
4516 C 15.991567051033968 109.13839347116809 95.28321729892701 C 0.0 **** -0.24
4517 H 15.082313675611289 108.70511384980631 95.69992167780225 H 0.0 **** 0.06
4518 H 16.74259091341702 108.35886643896438 95.16133150281945 H 0.0 **** 0.06
4519 H 16.370224596682903 109.9063399831675 95.95857879540807 H 0.0 **** 0.06
4520 H 15.769949554591278 109.58497940096979 94.31430496036603 H 0.0 **** 0.06
4521 C 122.61107173922491 123.22855808593559 87.02491700013479 C 0.0 **** -0.24
4522 H 121.54015692306572 123.0280230626037 87.06153186049136 H 0.0 **** 0.06
4523 H 123.09393734768247 122.78541618494495 87.89612854395159 H 0.0 **** 0.06
4524 H 122.77878588437522 124.30522400538037 87.02354208776205 H 0.0 **** 0.06
4525 H 123.03029220825724 122.79426083372266 86.11672009137294 H 0.0 **** 0.06
4526 C 3.421230550300038 127.96378027402963 55.52641856644914 C 0.0 **** -0.24
4527 H 4.1567683774679836 127.77922155784292 56.30945283219859 H 0.0 **** 0.06
4528 H 3.728290848530264 128.82670978987056 54.935729918116024 H 0.0 **** 0.06
4529 H 2.450291337791782 128.16017062023428 55.97979840373223 H 0.0 **** 0.06
4530 H 3.3503938675848417 127.08795102304633 54.8811211314698 H 0.0 **** 0.06
4531 C 10.446329159454876 2.0030808910541786 33.43058405038539 C 0.0 **** -0.24
4532 H 10.653729799791563 0.9512230185153392 33.6259975408758 H 0.0 **** 0.06
4533 H 9.573921761895349 2.3143579035008948 34.005287829185875 H 0.0 **** 0.06
4534 H 10.25094495126882 2.144339683173932 32.36804116659931 H 0.0 **** 0.06
4535 H 11.308601850604077 2.6033381854427375 33.72377434751837 H 0.0 **** 0.06
4536 C 129.43259572422716 106.23262483873235 33.5710450086454 C 0.0 **** -0.24
4537 H 128.42834993945297 106.3014018195479 33.990553844389495 H 0.0 **** 0.06
4538 H 129.90814350641674 107.21365211632845 33.605386655477176 H 0.0 **** 0.06
4539 H 129.37219507027908 105.8927674257503 32.537388807974736 H 0.0 **** 0.06
4540 H 130.02070643284463 105.52277875386244 34.15349917040021 H 0.0 **** 0.06
4541 C 41.74201217146839 43.720674748260194 124.02656376065084 C 0.0 **** -0.24
4542 H 42.086706189960864 44.716254705552984 124.30637630917039 H 0.0 **** 0.06
4543 H 41.306389853940345 43.75484359688113 123.028118398841 H 0.0 **** 0.06
4544 H 40.990577961286704 43.38269427172881 124.74005327455711 H 0.0 **** 0.06
4545 H 42.58495503096452 43.029634613014565 124.03207172810534 H 0.0 **** 0.06
4546 C 7.797651112033066 94.93019860995255 85.73808341398012 C 0.0 **** -0.24
4547 H 8.49549370312809 95.12377785270868 86.55316580516876 H 0.0 **** 0.06
4548 H 8.13507290002633 94.06437101292144 85.1690486746179 H 0.0 **** 0.06
4549 H 7.753139569488667 95.80077700953373 85.08387593182141 H 0.0 **** 0.06
4550 H 6.807086923682903 94.73303412909709 86.14814223117835 H 0.0 **** 0.06
4551 C 92.6855720073338 123.25714230757183 8.661466230367353 C 0.0 **** -0.24
4552 H 91.94882969712131 122.4908210059706 8.42164365024965 H 0.0 **** 0.06
4553 H 92.30874769426202 123.88129717600208 9.472767469456329 H 0.0 **** 0.06
4554 H 92.8662082609944 123.87545779086462 7.781721937466813 H 0.0 **** 0.06
4555 H 93.61731988593323 122.78273833543034 8.970477985979926 H 0.0 **** 0.06
4556 C 44.59419640256064 106.8117673767334 121.63427873252384 C 0.0 **** -0.24
4557 H 43.656885391098086 107.03766949264613 122.14352603689576 H 0.0 **** 0.06
4558 H 45.36487711856091 106.59419154636731 122.37370584739534 H 0.0 **** 0.06
4559 H 44.896165393379874 107.66935775681114 121.03375571722304 H 0.0 **** 0.06
4560 H 44.45527141294457 105.94565069643093 120.98717578978972 H 0.0 **** 0.06
4561 C 6.966170190995825 3.7241565534544314 68.87577434784401 C 0.0 **** -0.24
4562 H 7.629812160457703 3.2051266487274575 69.56782550209886 H 0.0 **** 0.06
4563 H 5.939590705506987 3.398195556277585 69.04447373849868 H 0.0 **** 0.06
4564 H 7.257570300884396 3.493031812789482 67.85110278580936 H 0.0 **** 0.06
4565 H 7.038072139816478 4.799219395653438 69.04163417897797 H 0.0 **** 0.06
4566 C 90.70795439279983 55.63130211725192 36.321151303787 C 0.0 **** -0.24
4567 H 89.86470072881073 56.28046623824329 36.55516332117349 H 0.0 **** 0.06
4568 H 90.33933612258689 54.63717873318757 36.06515359500692 H 0.0 **** 0.06
4569 H 91.36605648652146 55.56360094161913 37.187081221230024 H 0.0 **** 0.06
4570 H 91.2596355039521 56.04346037346721 35.476586350514175 H 0.0 **** 0.06
4571 C 5.893738234509414 80.20763843293085 90.62770406773424 C 0.0 **** -0.24
4572 H 4.953524973365205 79.66951917421798 90.50876654130593 H 0.0 **** 0.06
4573 H 5.686802769510109 81.26396893013421 90.80353394545597 H 0.0 **** 0.06
4574 H 6.490748600163073 80.10013627973902 89.72250666467926 H 0.0 **** 0.06
4575 H 6.441573820940675 79.79746394304149 91.47665081652627 H 0.0 **** 0.06
4576 C 63.29568398341017 99.87405036238931 61.84795739033845 C 0.0 **** -0.24
4577 H 64.2403261698401 99.40098216684294 62.11498558159835 H 0.0 **** 0.06
4578 H 63.22568941499122 99.9608042906907 60.76356308979129 H 0.0 **** 0.06
4579 H 63.248116323635074 100.86670567021076 62.29561040625637 H 0.0 **** 0.06
4580 H 62.469080397002514 99.26872937700534 62.21852644467853 H 0.0 **** 0.06
4581 C 109.64962373763183 21.085996068335476 117.0991262541371 C 0.0 **** -0.24
4582 H 108.69458424538772 21.496594635474594 116.77304835865934 H 0.0 **** 0.06
4583 H 109.78441821672436 20.09385557012621 116.66614559040468 H 0.0 **** 0.06
4584 H 109.66119234665575 21.012054565022254 118.18671731274955 H 0.0 **** 0.06
4585 H 110.45786763687795 21.739662296647055 116.76987896426482 H 0.0 **** 0.06
4586 C 5.347727006651894 87.31678392576782 25.01069468134687 C 0.0 **** -0.24
4587 H 4.61470781195743 86.52287934822988 25.151136157242213 H 0.0 **** 0.06
4588 H 5.8215329905374915 87.20393452967613 24.03515769195191 H 0.0 **** 0.06
4589 H 6.10548109296667 87.25452568572524 25.79256500168212 H 0.0 **** 0.06
4590 H 4.850157937357267 88.28426380615815 25.063078583124707 H 0.0 **** 0.06
4591 C 26.402258164300406 47.029916735437865 26.676869856575408 C 0.0 **** -0.24
4592 H 26.597640280240626 46.31882168932134 27.479700566399636 H 0.0 **** 0.06
4593 H 25.883918959995015 47.89900751415718 27.080550538469794 H 0.0 **** 0.06
4594 H 25.781102237820164 46.555800837659575 25.91625894506935 H 0.0 **** 0.06
4595 H 27.346755176755096 47.34310355343112 26.231467897863908 H 0.0 **** 0.06
4596 C 81.80362879513774 48.7795057933609 125.89051689233914 C 0.0 **** -0.24
4597 H 81.30155667332366 47.96438520898971 126.4114252072965 H 0.0 **** 0.06
4598 H 81.06303305037329 49.39683615415663 125.38230470783739 H 0.0 **** 0.06
4599 H 82.49881756364721 48.36899276827785 125.15824433512142 H 0.0 **** 0.06
4600 H 82.35139791463678 49.38701191010989 126.61062296449036 H 0.0 **** 0.06
4601 C 91.69355072469695 109.32201624365314 28.700435250266736 C 0.0 **** -0.24
4602 H 91.55428451335867 108.269046972578 28.945712883326493 H 0.0 **** 0.06
4603 H 91.98315985992917 109.86823151415035 29.59848921945374 H 0.0 **** 0.06
4604 H 90.76075148242576 109.73073320323203 28.311817835606732 H 0.0 **** 0.06
4605 H 92.47445839193294 109.41980261817037 27.947602333966444 H 0.0 **** 0.06
4606 C 65.73613259196296 89.91595573825546 14.344903528553388 C 0.0 **** -0.24
4607 H 65.53592572636487 88.94924979057183 14.807867175188065 H 0.0 **** 0.06
4608 H 64.79344419670102 90.41474544616676 14.121469319676379 H 0.0 **** 0.06
4609 H 66.29706303242924 89.76662417529329 13.422468934892237 H 0.0 **** 0.06
4610 H 66.32037359154097 90.53140386834488 15.029700999991462 H 0.0 **** 0.06
4611 C 101.40842132576226 44.596323382968706 14.18529525595767 C 0.0 **** -0.24
4612 H 102.27874057772125 45.00390904761656 14.699470116468376 H 0.0 **** 0.06
4613 H 101.43584142099061 44.89125285062681 13.135711868360886 H 0.0 **** 0.06
4614 H 100.50018255325809 44.98285741908643 14.648368982870466 H 0.0 **** 0.06
4615 H 101.41939267899191 43.50958975815462 14.258274941804302 H 0.0 **** 0.06
4616 C 71.29321825365957 16.878259822351396 71.34089072861101 C 0.0 **** -0.24
4617 H 71.10863539524834 17.77330880976092 70.74700190388054 H 0.0 **** 0.06
4618 H 71.0147625373763 17.068422529112183 72.37798912998754 H 0.0 **** 0.06
4619 H 72.35015008352292 16.620642979279296 71.28888081532537 H 0.0 **** 0.06
4620 H 70.69792826002086 16.053319446709168 70.94974924808676 H 0.0 **** 0.06
4621 C 96.69608077040088 21.247452301690146 111.07639269051774 C 0.0 **** -0.24
4622 H 96.21565077276635 20.411509889006766 111.58459221553163 H 0.0 **** 0.06
4623 H 97.4104810894378 21.720823234667705 111.75130877235371 H 0.0 **** 0.06
4624 H 95.94036213718512 21.97419852895689 110.77764570458824 H 0.0 **** 0.06
4625 H 97.21864676147399 20.88212833214135 110.19192014005775 H 0.0 **** 0.06
4626 C 70.18300088170177 38.9550042768453 1.2599263166476362 C 0.0 **** -0.24
4627 H 70.78362070163833 38.687388361953964 2.129324401514282 H 0.0 **** 0.06
4628 H 70.66617763573396 38.580554624346206 0.3560660987616018 H 0.0 **** 0.06
4629 H 70.0914529158088 40.03944227826358 1.2001713791162558 H 0.0 **** 0.06
4630 H 69.19139079848975 38.51074398818214 1.3531292024908907 H 0.0 **** 0.06
4631 C 82.52616357963011 92.65238610007566 110.33890607916578 C 0.0 **** -0.24
4632 H 83.05659215772259 93.48985329925722 110.79385967264932 H 0.0 **** 0.06
4633 H 83.1715307637959 92.17132115453171 109.6038175163298 H 0.0 **** 0.06
4634 H 81.62420476501435 93.01728361156245 109.84828653971118 H 0.0 **** 0.06
4635 H 82.25453005186543 91.93293451005184 111.11051480877688 H 0.0 **** 0.06
4636 C 82.11355650619068 110.70145825899698 120.87099655439829 C 0.0 **** -0.24
4637 H 81.56640451700684 110.35035372897613 119.99605782338978 H 0.0 **** 0.06
4638 H 81.67702178204523 111.63641061290042 121.22110789951932 H 0.0 **** 0.06
4639 H 83.15771665590205 110.86441860721226 120.60545195610712 H 0.0 **** 0.06
4640 H 82.05287897861176 109.95303633380888 121.6607732944297 H 0.0 **** 0.06
4641 C 17.547854507496226 29.402559322208532 36.554534335264464 C 0.0 **** -0.24
4642 H 18.25288656516173 28.70733539886441 36.0969908334625 H 0.0 **** 0.06
4643 H 17.743613510075164 30.410447945800072 36.18855427433867 H 0.0 **** 0.06
4644 H 17.667122653785754 29.37916692791756 37.63725743771403 H 0.0 **** 0.06
4645 H 16.530616439584833 29.111125439854 36.294164518808174 H 0.0 **** 0.06
4646 C 104.5133780102845 121.64907552367247 97.48333130070273 C 0.0 **** -0.24
4647 H 103.4258049370543 121.69226641777998 97.42304167788899 H 0.0 **** 0.06
4648 H 104.81796928471255 121.59759287800102 98.52845863306354 H 0.0 **** 0.06
4649 H 104.93773469778364 122.5427392232949 97.02395438024635 H 0.0 **** 0.06
4650 H 104.87122813915988 120.76507884734883 96.95531932885976 H 0.0 **** 0.06
4651 C 19.443892872989927 86.52129796942897 37.384305985028064 C 0.0 **** -0.24
4652 H 19.118154303712174 85.48487012934524 37.2919034583161 H 0.0 **** 0.06
4653 H 18.572549666653146 87.17718977595933 37.37878324158555 H 0.0 **** 0.06
4654 H 20.093947602134413 86.7731439792807 36.5458007904969 H 0.0 **** 0.06
4655 H 19.988930039180772 86.64908019336491 38.3184524104077 H 0.0 **** 0.06
4656 C 70.25449984375221 17.889034223110336 19.660553257658364 C 0.0 **** -0.24
4657 H 69.67724290392869 16.966311077783487 19.604804961573663 H 0.0 **** 0.06
4658 H 70.27023163182842 18.367563355293306 18.680755873595132 H 0.0 **** 0.06
4659 H 71.27511623979495 17.660977077058554 19.97067690618843 H 0.0 **** 0.06
4660 H 69.7967489075979 18.561587380364266 20.386310674364424 H 0.0 **** 0.06
4661 C 76.73665150577818 21.170319104988437 19.628947019455865 C 0.0 **** -0.24
4662 H 77.56341233405129 20.591438287369613 19.218332902249557 H 0.0 **** 0.06
4663 H 75.83729632036359 20.98737556800961 19.039546924610917 H 0.0 **** 0.06
4664 H 76.98395531926924 22.23083329287641 19.595214418186004 H 0.0 **** 0.06
4665 H 76.56121287462288 20.86985418301049 20.661545946022386 H 0.0 **** 0.06
4666 C 44.710380445802 18.10645437646427 106.30596910260678 C 0.0 **** -0.24
4667 H 45.640658760152206 17.734663141064956 106.7351054307222 H 0.0 **** 0.06
4668 H 44.064443122515286 17.264775745653225 106.05330014006208 H 0.0 **** 0.06
4669 H 44.92936814664213 18.679247534989912 105.40471893472883 H 0.0 **** 0.06
4670 H 44.20611872376267 18.74613261413586 107.03038772872495 H 0.0 **** 0.06
4671 C 85.4248138081453 50.43324255280605 116.35893442340205 C 0.0 **** -0.24
4672 H 85.03347054847191 50.975887271791066 117.21852882945979 H 0.0 **** 0.06
4673 H 85.24781325858262 49.36587748157851 116.49167132937546 H 0.0 **** 0.06
4674 H 86.49545866519983 50.616941391370986 116.27009869819312 H 0.0 **** 0.06
4675 H 84.9217700451446 50.77521663344429 115.45355701031536 H 0.0 **** 0.06
4676 C 17.447226112485538 114.24297481128741 37.079377302523994 C 0.0 **** -0.24
4677 H 16.811724466379445 113.43465941967133 36.71963256802845 H 0.0 **** 0.06
4678 H 17.80141766319295 114.00753767865928 38.08287576282809 H 0.0 **** 0.06
4679 H 16.876509153821246 115.17107469862174 37.10381494739884 H 0.0 **** 0.06
4680 H 18.300391551942255 114.3597025599181 36.41044540410239 H 0.0 **** 0.06
4681 C 5.685972462016217 50.01548598396582 91.33785699723316 C 0.0 **** -0.24
4682 H 5.7293393829965105 49.02766456972026 90.87905351284189 H 0.0 **** 0.06
4683 H 4.737120764784258 50.13098919105718 91.8633234843333 H 0.0 **** 0.06
4684 H 5.769294819082326 50.778862637369144 90.56453628910091 H 0.0 **** 0.06
4685 H 6.5086898043556225 50.123144506120695 92.04472918369353 H 0.0 **** 0.06
4686 C 110.54599420353495 72.50544338781376 73.18327098534864 C 0.0 **** -0.24
4687 H 110.3785749710431 72.31590748025855 74.24332116586102 H 0.0 **** 0.06
4688 H 110.01748471168864 71.75635494685412 72.59268673373863 H 0.0 **** 0.06
4689 H 111.61403729135138 72.45046680070016 72.96888092832505 H 0.0 **** 0.06
4690 H 110.17579528756212 73.49789083440993 72.92822346225256 H 0.0 **** 0.06
4691 C 63.732304932803416 107.40182643353607 69.52204947281217 C 0.0 **** -0.24
4692 H 63.28021479084158 107.39340062111911 70.51400410747459 H 0.0 **** 0.06
4693 H 64.60402763658911 106.74727555394122 69.51518222049245 H 0.0 **** 0.06
4694 H 64.03711620887154 108.4170374373362 69.27025568879523 H 0.0 **** 0.06
4695 H 63.00637490212169 107.04798834898845 68.78922430129519 H 0.0 **** 0.06
4696 C 104.62230310895976 130.70857234573316 127.72819459825513 C 0.0 **** -0.24
4697 H 104.56778879083632 130.0877785720312 126.83358027785914 H 0.0 **** 0.06
4698 H 104.26785971894097 130.13821316789785 128.5872695708686 H 0.0 **** 0.06
4699 H 103.99918361642517 131.59223319030343 127.59514946095152 H 0.0 **** 0.06
4700 H 105.65582962539159 131.0135722745107 127.89513922140901 H 0.0 **** 0.06
4701 C 34.76413467368644 20.212046221582327 72.0081764796384 C 0.0 **** -0.24
4702 H 34.201068384908865 19.301217417415586 72.21195753347331 H 0.0 **** 0.06
4703 H 34.11916312457896 21.077947256315966 72.15952905107036 H 0.0 **** 0.06
4704 H 35.117787897182154 20.19819480300289 70.97680358142924 H 0.0 **** 0.06
4705 H 35.61680612832845 20.27074287387741 72.68465749497176 H 0.0 **** 0.06
4706 C 48.000132912796516 34.6124149534807 88.81182528097625 C 0.0 **** -0.24
4707 H 47.506702602420745 35.27083407070287 89.52658345787071 H 0.0 **** 0.06
4708 H 47.38196981240452 33.7297942962017 88.64526096821646 H 0.0 **** 0.06
4709 H 48.969618900653614 34.3089711802463 89.2073392286812 H 0.0 **** 0.06
4710 H 48.141583869301726 35.1408524542814 87.86908783128892 H 0.0 **** 0.06
4711 C 123.4265169544143 18.776869877071505 20.854989112383407 C 0.0 **** -0.24
4712 H 123.4343108546945 19.544289946721648 21.628657730704674 H 0.0 **** 0.06
4713 H 122.84306461943567 17.922037501682794 21.19602491186319 H 0.0 **** 0.06
4714 H 124.44894660972244 18.4599203556635 20.64796712648075 H 0.0 **** 0.06
4715 H 122.9813474301302 19.18222640738891 19.94574288056964 H 0.0 **** 0.06
4716 C 55.64812128924767 59.12257142836327 7.63693975893429 C 0.0 **** -0.24
4717 H 55.45952788291149 59.58670665007182 6.669165269046175 H 0.0 **** 0.06
4718 H 56.62852703774969 58.64532287591945 7.626503701012751 H 0.0 **** 0.06
4719 H 54.88064266493603 58.37376001296096 7.835762696494186 H 0.0 **** 0.06
4720 H 55.623167880190394 59.88377914197977 8.416008146493596 H 0.0 **** 0.06
4721 C 113.728530163041 60.436422308214475 3.0528580601485125 C 0.0 **** -0.24
4722 H 112.68855932016771 60.137174474304516 2.925595325000131 H 0.0 **** 0.06
4723 H 113.95003085181997 60.53771427763655 4.116087548677783 H 0.0 **** 0.06
4724 H 113.89579468581547 61.39021949629506 2.5537659842953566 H 0.0 **** 0.06
4725 H 114.38052185246715 59.67856826598461 2.617137250912684 H 0.0 **** 0.06
4726 C 83.75823823609392 119.70810269802257 128.79492230045273 C 0.0 **** -0.24
4727 H 83.85774821542026 119.25280561625081 127.81012194456217 H 0.0 **** 0.06
4728 H 84.23698320553052 119.07123226129141 129.53911300161045 H 0.0 **** 0.06
4729 H 82.70148815432992 119.81962787711922 129.0387909091574 H 0.0 **** 0.06
4730 H 84.23630620580332 120.68773369412088 128.79255487782294 H 0.0 **** 0.06
4731 C 112.10363366053294 45.93897197756013 127.67090564927412 C 0.0 **** -0.24
4732 H 111.09803043701218 46.3514517551572 127.74866181674616 H 0.0 **** 0.06
4733 H 112.05715893324505 44.85241774926922 127.74421649532081 H 0.0 **** 0.06
4734 H 112.72078860617641 46.332757726777146 128.47844575634628 H 0.0 **** 0.06
4735 H 112.53800970487134 46.22033207109345 126.71105228602482 H 0.0 **** 0.06
4736 C 122.01063602033304 35.9025942027036 72.30832961549567 C 0.0 **** -0.24
4737 H 121.18205937996197 36.26215158597486 72.91866372191794 H 0.0 **** 0.06
4738 H 122.48863399481252 35.05774285439625 72.80615259220863 H 0.0 **** 0.06
4739 H 122.73708858368099 36.704028703867834 72.1739946545024 H 0.0 **** 0.06
4740 H 121.63404645008242 35.58593612472362 71.33561206330745 H 0.0 **** 0.06
4741 C 51.96076043257119 75.58137913077019 94.9719193383437 C 0.0 **** -0.24
4742 H 51.62449815333309 76.5156643213433 94.52347728674226 H 0.0 **** 0.06
4743 H 52.21200485913917 75.75036053842703 96.01914711026997 H 0.0 **** 0.06
4744 H 52.84076030088218 75.21922718526999 94.44110428022172 H 0.0 **** 0.06
4745 H 51.164867413897014 74.83889763188355 94.90546593841314 H 0.0 **** 0.06
4746 C 34.333448210477485 124.87423536691267 8.83861710837121 C 0.0 **** -0.24
4747 H 34.61359315098156 123.82287204656151 8.76929552949872 H 0.0 **** 0.06
4748 H 35.22246153141654 125.47629448535375 9.027128691455971 H 0.0 **** 0.06
4749 H 33.623692525267046 125.00784095538535 9.655472007249216 H 0.0 **** 0.06
4750 H 33.87190046742934 125.18935032340852 7.902812795499528 H 0.0 **** 0.06
4751 C 22.96772781971393 20.67308845584114 82.34894596344728 C 0.0 **** -0.24
4752 H 22.226845707394517 19.878566470936022 82.43213805615952 H 0.0 **** 0.06
4753 H 23.80251731473109 20.462536633130583 83.0169952615174 H 0.0 **** 0.06
4754 H 22.512612910110477 21.625277930732608 82.62508759647395 H 0.0 **** 0.06
4755 H 23.327683903028813 20.727530054364962 81.32146788194166 H 0.0 **** 0.06
4756 C 55.679616544403075 54.5814050027293 103.40927006452313 C 0.0 **** -0.24
4757 H 54.80447542656215 55.23192829569652 103.37968897378278 H 0.0 **** 0.06
4758 H 55.61922034192315 53.85366534169411 102.6007735042673 H 0.0 **** 0.06
4759 H 55.71190099968969 54.06093469571823 104.36716563349444 H 0.0 **** 0.06
4760 H 56.58189203330208 55.18143076814499 103.2920161511554 H 0.0 **** 0.06
4761 C 27.404656591244866 93.29748268770749 41.162392848682174 C 0.0 **** -0.24
4762 H 27.846210420713753 92.65756323709667 41.92596455378171 H 0.0 **** 0.06
4763 H 27.57396236583999 92.85944628496335 40.17862959110067 H 0.0 **** 0.06
4764 H 27.865822386952168 94.28433180977987 41.20449273959366 H 0.0 **** 0.06
4765 H 26.334009140371712 93.38889918061824 41.34041091360751 H 0.0 **** 0.06
4766 C 82.84118551036818 117.79932304405807 32.05763329991239 C 0.0 **** -0.24
4767 H 82.50743616916469 116.79372035226646 31.799118022108594 H 0.0 **** 0.06
4768 H 83.42435232892069 118.2113914881527 31.23478248398667 H 0.0 **** 0.06
4769 H 83.45716212318932 117.75670769649537 32.95575589795378 H 0.0 **** 0.06
4770 H 81.97414873830729 118.43346602947545 32.24200620285185 H 0.0 **** 0.06
4771 C 73.33399300960974 6.935453654065157 31.72423183602919 C 0.0 **** -0.24
4772 H 73.20611394888454 5.990490297295111 32.25149517233152 H 0.0 **** 0.06
4773 H 72.79015833658292 6.8997518983177315 30.779956063052104 H 0.0 **** 0.06
4774 H 74.39270890337949 7.101648012760705 31.528557393265473 H 0.0 **** 0.06
4775 H 72.94538610437166 7.7481321323494114 32.33738010128061 H 0.0 **** 0.06
4776 C 122.00323594459155 94.79961261556222 97.65002927483168 C 0.0 **** -0.24
4777 H 122.72521810635868 94.18695297237547 98.19007223420422 H 0.0 **** 0.06
4778 H 121.5453065308789 94.20769654940143 96.85632870165368 H 0.0 **** 0.06
4779 H 122.51034710354301 95.66050531304055 97.21403211690982 H 0.0 **** 0.06
4780 H 121.23067487825806 95.14344666742024 98.33867147528625 H 0.0 **** 0.06
4781 C 7.13472071701284 84.67777356180547 86.71970454760111 C 0.0 **** -0.24
4782 H 6.101266975968159 85.02425755320591 86.76033420977981 H 0.0 **** 0.06
4783 H 7.745958250297647 85.28269495583079 87.3892164869882 H 0.0 **** 0.06
4784 H 7.508494701018805 84.77142818232058 85.70045372051564 H 0.0 **** 0.06
4785 H 7.1791689663415355 83.6336059064869 87.02993309690828 H 0.0 **** 0.06
4786 C 65.11995449109065 34.25783316497569 44.94183717654243 C 0.0 **** -0.24
4787 H 64.23813350121412 33.62666096065885 44.82649452861854 H 0.0 **** 0.06
4788 H 65.75343829800926 34.160972465915535 44.05925470063927 H 0.0 **** 0.06
4789 H 65.67735287319312 33.94486839016656 45.825077007719095 H 0.0 **** 0.06
4790 H 64.81059368566531 35.29690050383077 45.05609322574243 H 0.0 **** 0.06
4791 C 23.545838551821817 22.27950764168392 19.844222285943616 C 0.0 **** -0.24
4792 H 24.003878275021805 21.305546237934493 19.668750560139188 H 0.0 **** 0.06
4793 H 22.518534671922794 22.14148989697577 20.183884476327194 H 0.0 **** 0.06
4794 H 23.547856410941137 22.854204882913507 18.917887846257486 H 0.0 **** 0.06
4795 H 24.111737638429332 22.815323446437333 20.606177078789983 H 0.0 **** 0.06
4796 C 106.05509256070904 117.0300262135943 40.138328553446826 C 0.0 **** -0.24
4797 H 105.69570742524319 117.29238783139175 39.14342948343685 H 0.0 **** 0.06
4798 H 107.10519873303765 117.3094220291121 40.23095438876112 H 0.0 **** 0.06
4799 H 105.9498220202378 115.95673158553973 40.29111640766462 H 0.0 **** 0.06
4800 H 105.47056643943492 117.56357213261012 40.887481011756876 H 0.0 **** 0.06
4801 C 74.04180220334811 119.41673169475999 7.52162404412951 C 0.0 **** -0.24
4802 H 74.27110721683644 120.42169418214796 7.168437078219142 H 0.0 **** 0.06
4803 H 74.36233204234114 119.3140095471422 8.558701810057357 H 0.0 **** 0.06
4804 H 74.56622874818211 118.68620613286117 6.905327285192868 H 0.0 **** 0.06
4805 H 72.96789689275607 119.2440993182775 7.453853167012255 H 0.0 **** 0.06
4806 C 7.908355464809098 29.929289010525608 79.61883285905463 C 0.0 **** -0.24
4807 H 7.562661284781274 30.931838660589634 79.87386675763382 H 0.0 **** 0.06
4808 H 8.090651816751492 29.36463123883209 80.53380180614761 H 0.0 **** 0.06
4809 H 8.832075253672798 30.000020401646196 79.04459050015417 H 0.0 **** 0.06
4810 H 7.14809752946833 29.42413753360468 79.02404360059546 H 0.0 **** 0.06
4811 C 7.823689306777823 43.66857362389987 94.74747533320993 C 0.0 **** -0.24
4812 H 8.272260630376024 42.787836700238316 95.20586124995941 H 0.0 **** 0.06
4813 H 8.165705616163564 44.563734589125595 95.26714751238558 H 0.0 **** 0.06
4814 H 6.738242649497522 43.601196323594536 94.81633960718082 H 0.0 **** 0.06
4815 H 8.118103389223734 43.722772044473764 93.69943413955355 H 0.0 **** 0.06
4816 C 7.606742255651795 57.432552762922086 81.9260925663715 C 0.0 **** -0.24
4817 H 8.45503279693159 57.201148705891484 82.5710195731363 H 0.0 **** 0.06
4818 H 7.804004883163486 58.35878304099808 81.38568768170138 H 0.0 **** 0.06
4819 H 6.709740978116997 57.550982833436734 82.53456568776197 H 0.0 **** 0.06
4820 H 7.459316263960858 56.620415153905526 81.21467249883865 H 0.0 **** 0.06
4821 C 26.775530882214895 87.67097982356412 9.041188302438727 C 0.0 **** -0.24
4822 H 27.13462839250292 87.27866232897227 9.993037279283836 H 0.0 **** 0.06
4823 H 26.6011962144174 86.84565504526356 8.349832400425022 H 0.0 **** 0.06
4824 H 27.522801339725845 88.34453218672147 8.621548514527028 H 0.0 **** 0.06
4825 H 25.844257610001222 88.2157056953101 9.200469052942992 H 0.0 **** 0.06
4826 C 130.39249572567027 39.7495063433214 4.6064809617963185 C 0.0 **** -0.24
4827 H 131.05488289797577 39.73107109784655 3.7406554126267544 H 0.0 **** 0.06
4828 H 129.5110149704571 40.34919163301845 4.375403466436026 H 0.0 **** 0.06
4829 H 130.91689047536033 40.18562336789961 5.45642656514649 H 0.0 **** 0.06
4830 H 130.08606435163793 38.7325471164865 4.851303776029859 H 0.0 **** 0.06
4831 C 30.741266131008445 51.89518814013692 119.2906276142809 C 0.0 **** -0.24
4832 H 31.80857983361676 51.674336934887805 119.26659226742296 H 0.0 **** 0.06
4833 H 30.18200597785801 51.01866292036604 118.96318280937291 H 0.0 **** 0.06
4834 H 30.528739666138534 52.73224686568952 118.62549479381977 H 0.0 **** 0.06
4835 H 30.44734299355008 52.15505090102047 120.30771021650824 H 0.0 **** 0.06
4836 C 22.359704712170526 10.149462184368645 79.65264770826283 C 0.0 **** -0.24
4837 H 21.97576320393938 9.57138958676451 80.49277890068149 H 0.0 **** 0.06
4838 H 22.35802635696814 9.529138634703259 78.75557055016779 H 0.0 **** 0.06
4839 H 23.377915895621413 10.472944480183614 79.86936105399812 H 0.0 **** 0.06
4840 H 21.727305781884922 11.02241420053221 79.49254207936204 H 0.0 **** 0.06
4841 C 129.83617248012092 108.76803837904122 20.2435700315408 C 0.0 **** -0.24
4842 H 129.77902862162455 109.53143241904932 19.46722176875278 H 0.0 **** 0.06
4843 H 128.82898735521576 108.44330862651853 20.50754022439844 H 0.0 **** 0.06
4844 H 130.32821358579764 109.18157185918542 21.123168808470837 H 0.0 **** 0.06
4845 H 130.40774802334687 107.91630753490891 19.87284571363955 H 0.0 **** 0.06
4846 C 75.29348787957893 95.81321652766009 101.37794087126548 C 0.0 **** -0.24
4847 H 75.60261887708965 95.16761497089311 100.55557528560514 H 0.0 **** 0.06
4848 H 74.21222744242087 95.75397632446538 101.50028018190523 H 0.0 **** 0.06
4849 H 75.57885136552895 96.84231834062984 101.15770313926645 H 0.0 **** 0.06
4850 H 75.78220355233435 95.48914108560822 102.29712562199663 H 0.0 **** 0.06
4851 C 0.18339054054206194 38.00551554926613 35.39121436893882 C 0.0 **** -0.24
4852 H 0.6752443113118609 38.85741157483682 34.92229703353337 H 0.0 **** 0.06
4853 H -0.6485491800859009 37.67773681851868 34.76658410600942 H 0.0 **** 0.06
4854 H -0.19097928853248902 38.29713599738912 36.37282287094999 H 0.0 **** 0.06
4855 H 0.8978463194744108 37.18977780631973 35.50315346526243 H 0.0 **** 0.06
4856 C 53.620056574889304 78.05919879905719 87.33096631255717 C 0.0 **** -0.24
4857 H 53.637960810006405 77.09588122903028 87.84244482481915 H 0.0 **** 0.06
4858 H 54.552723952128815 78.58909406821374 87.52275265126656 H 0.0 **** 0.06
4859 H 52.78214268204866 78.6502737225129 87.7005907328575 H 0.0 **** 0.06
4860 H 53.50635331516014 77.89810624255779 86.25911361430212 H 0.0 **** 0.06
4861 C 36.989481780829635 92.16920299565457 78.14872088272561 C 0.0 **** -0.24
4862 H 36.885539626477396 93.25184362252105 78.22473275197797 H 0.0 **** 0.06
4863 H 36.36209272552787 91.69107735890665 78.90165539249 H 0.0 **** 0.06
4864 H 38.02971826414165 91.89153611687092 78.31196764779783 H 0.0 **** 0.06
4865 H 36.67700622390163 91.84454976903477 77.15586700756839 H 0.0 **** 0.06
4866 C 35.726811169455175 80.19107704692956 9.646955913283819 C 0.0 **** -0.24
4867 H 36.28340383641475 80.88182284666763 10.281065023915858 H 0.0 **** 0.06
4868 H 36.22815574365737 80.09979947033204 8.682670389624832 H 0.0 **** 0.06
4869 H 34.71606882975473 80.56856811201558 9.497718547590807 H 0.0 **** 0.06
4870 H 35.68314289464661 79.21321138685434 10.127231189428528 H 0.0 **** 0.06
4871 C 22.20390356655227 40.06768390718555 108.72443995380985 C 0.0 **** -0.24
4872 H 22.41126144477488 40.00270867373701 109.79245745675934 H 0.0 **** 0.06
4873 H 22.982045254870172 39.541214304288026 108.17099638074717 H 0.0 **** 0.06
4874 H 22.187110259620084 41.11415831508394 108.42001793436322 H 0.0 **** 0.06
4875 H 21.236415385437766 39.61213405133705 108.51379236107971 H 0.0 **** 0.06
4876 C 76.74366172722767 104.79921961570652 103.68628649118698 C 0.0 **** -0.24
4877 H 77.70141035758363 104.99177604043983 103.2036665494965 H 0.0 **** 0.06
4878 H 76.03157231201172 105.57528964926423 103.40363918206911 H 0.0 **** 0.06
4879 H 76.87452659089307 104.80306375225074 104.76862475040242 H 0.0 **** 0.06
4880 H 76.36713764842224 103.82674902087145 103.36921548278 H 0.0 **** 0.06
4881 C 58.28886481371822 98.69122367895201 103.01244077879895 C 0.0 **** -0.24
4882 H 57.41775496383511 98.83931866864394 103.65031219804466 H 0.0 **** 0.06
4883 H 57.96184962161222 98.42006930617686 102.00788768256177 H 0.0 **** 0.06
4884 H 58.90677731683721 97.89118252092698 103.42187066608844 H 0.0 **** 0.06
4885 H 58.868260134561936 99.61321324441623 102.9700056175612 H 0.0 **** 0.06
4886 C 82.28177776191997 6.416347951476041 86.15375765603986 C 0.0 **** -0.24
4887 H 81.50485025956475 6.631359949691159 86.88836029954743 H 0.0 **** 0.06
4888 H 83.16126367778311 7.023556734273598 86.36774476117628 H 0.0 **** 0.06
4889 H 81.91138570820465 6.6498447356308645 85.15608567102382 H 0.0 **** 0.06
4890 H 82.54770830963915 5.360259937188943 86.20533820502683 H 0.0 **** 0.06
4891 C 15.226041139332892 69.1937180067076 17.23197079316462 C 0.0 **** -0.24
4892 H 15.727958752398308 70.04453756841062 16.770351580167848 H 0.0 **** 0.06
4893 H 15.966686820785924 68.44423950462954 17.512431959025825 H 0.0 **** 0.06
4894 H 14.519530343490601 68.76095046445954 16.523373414725782 H 0.0 **** 0.06
4895 H 14.690777817508035 69.52696871077086 18.12070167211752 H 0.0 **** 0.06
4896 C 7.605896845171571 119.0175744220565 1.8154764411517874 C 0.0 **** -0.24
4897 H 8.427976596921553 119.48041304764948 1.2704033229427694 H 0.0 **** 0.06
4898 H 7.920042961163006 118.04262095819712 2.1890744465695775 H 0.0 **** 0.06
4899 H 6.752131726690692 118.89304187166886 1.1482790802279226 H 0.0 **** 0.06
4900 H 7.321633173770721 119.65294768542844 2.6537934485988046 H 0.0 **** 0.06
4901 C 14.651163396492109 34.75765796674527 68.16840109165304 C 0.0 **** -0.24
4902 H 13.683195374456147 34.85098239852495 67.67449319223607 H 0.0 **** 0.06
4903 H 15.446046286082776 34.82906046903398 67.42573941533601 H 0.0 **** 0.06
4904 H 14.710134116265749 33.79301072984892 68.672013647842 H 0.0 **** 0.06
4905 H 14.763279598248062 35.557591500137306 68.90035448884106 H 0.0 **** 0.06
4906 C 16.518259673387135 15.05590526132815 29.665968109756697 C 0.0 **** -0.24
4907 H 16.50483711725049 16.12743835660035 29.865788381370578 H 0.0 **** 0.06
4908 H 16.401489695517526 14.510955391744773 30.603532490032386 H 0.0 **** 0.06
4909 H 17.467390517597707 14.78446017048762 29.203452496551066 H 0.0 **** 0.06
4910 H 15.699560525653979 14.800562569047258 28.99352832883254 H 0.0 **** 0.06
4911 C 14.74770399908266 45.64441648291681 119.10130072454484 C 0.0 **** -0.24
4912 H 15.614568230011912 45.925807989922944 119.69968582460409 H 0.0 **** 0.06
4913 H 13.860083151327046 45.6280641946596 119.73372961624821 H 0.0 **** 0.06
4914 H 14.907780008807208 44.65522872284531 118.67254122594666 H 0.0 **** 0.06
4915 H 14.60918449450645 46.36972412469562 118.29937575629162 H 0.0 **** 0.06
4916 C 65.40184204482877 73.01516572665594 22.37577302847228 C 0.0 **** -0.24
4917 H 66.26812442554512 73.36285017935194 22.939157322766164 H 0.0 **** 0.06
4918 H 65.33781621954174 73.56093902678032 21.434758877070408 H 0.0 **** 0.06
4919 H 64.4965731018851 73.18737717692571 22.959318156122038 H 0.0 **** 0.06
4920 H 65.50443328914231 71.94913828925289 22.17224410289242 H 0.0 **** 0.06
4921 C 60.391396489780746 84.83868075850674 29.879296832630786 C 0.0 **** -0.24
4922 H 59.79634579761478 84.0476293318106 29.422709715132072 H 0.0 **** 0.06
4923 H 60.25008626875922 85.7663974142973 29.323900800067463 H 0.0 **** 0.06
4924 H 61.44454408404384 84.55878363728502 29.85867636099607 H 0.0 **** 0.06
4925 H 60.0738353169984 84.98128597783247 30.9119870554006 H 0.0 **** 0.06
4926 C 129.34664406003924 36.618883818508635 13.479463299438894 C 0.0 **** -0.24
4927 H 128.27370706947244 36.546320106860776 13.300594041841268 H 0.0 **** 0.06
4928 H 129.75316053013412 37.45646132790493 12.910907362203126 H 0.0 **** 0.06
4929 H 129.83090647644656 35.69580557514885 13.162919677572894 H 0.0 **** 0.06
4930 H 129.52736831933677 36.77842026793836 14.54209883835846 H 0.0 **** 0.06
4931 C 108.02885545854632 35.98921443091613 116.12420299370851 C 0.0 **** -0.24
4932 H 107.49048143563707 36.546559227054544 116.88991872848177 H 0.0 **** 0.06
4933 H 108.011002659831 36.54814274922254 115.18775439975717 H 0.0 **** 0.06
4934 H 107.5528883249627 35.01972071455658 115.97814590157503 H 0.0 **** 0.06
4935 H 109.06190644352174 35.84239911922148 116.44047887679511 H 0.0 **** 0.06
4936 C 34.57857911750383 19.030191582173387 84.1034350876495 C 0.0 **** -0.24
4937 H 35.47974564097411 19.1240138192895 83.49660330455595 H 0.0 **** 0.06
4938 H 34.10738224925955 18.067585686292375 83.90736669910531 H 0.0 **** 0.06
4939 H 33.885949196400304 19.832894384667085 83.84999183158337 H 0.0 **** 0.06
4940 H 34.84297984981182 19.09850055947679 85.15836189516308 H 0.0 **** 0.06
4941 C 44.89946775756758 95.86274970547869 21.206743134285375 C 0.0 **** -0.24
4942 H 45.693606688523744 96.52663863700653 20.864959107093426 H 0.0 **** 0.06
4943 H 45.32362604530144 94.88958108722348 21.457687669741034 H 0.0 **** 0.06
4944 H 44.15958511863121 95.74336625731456 20.4146675089396 H 0.0 **** 0.06
4945 H 44.422757129715194 96.29054701693637 22.088497571633297 H 0.0 **** 0.06
4946 C 39.61836057761144 44.52460846986537 104.70858911879091 C 0.0 **** -0.24
4947 H 39.25458563080514 44.40049345013459 103.68786888104145 H 0.0 **** 0.06
4948 H 38.79983575014583 44.85627594259714 105.34780840130637 H 0.0 **** 0.06
4949 H 40.414231626103145 45.26950742226798 104.72152411453288 H 0.0 **** 0.06
4950 H 40.00328690462575 43.573583797757934 105.07498534705675 H 0.0 **** 0.06
4951 C 24.685305902005837 19.946572877441156 104.70865955551935 C 0.0 **** -0.24
4952 H 24.046303993297464 20.629024230337706 105.2692674352244 H 0.0 **** 0.06
4953 H 24.16818465594578 19.625508658305108 103.8048836932418 H 0.0 **** 0.06
4954 H 24.914748528782418 19.076259230756563 105.32395927075609 H 0.0 **** 0.06
4955 H 25.610789185959362 20.45494303564425 104.43859117251802 H 0.0 **** 0.06
4956 C 53.2748454527371 122.3466161410517 109.34321852022582 C 0.0 **** -0.24
4957 H 53.80120058788418 121.42194486259422 109.10626752464877 H 0.0 **** 0.06
4958 H 53.682540101550586 123.1605816575219 108.74292047967825 H 0.0 **** 0.06
4959 H 53.40196662823145 122.57623129061017 110.400447670573 H 0.0 **** 0.06
4960 H 52.21419857251803 122.22696728610535 109.12145550029817 H 0.0 **** 0.06
4961 C 9.194053393385946 117.75938102551731 78.79918451876019 C 0.0 **** -0.24
4962 H 10.084987641412201 118.32756539030132 79.06768069320243 H 0.0 **** 0.06
4963 H 8.656770596056528 118.28018190465428 78.00644173365102 H 0.0 **** 0.06
4964 H 8.549237755733376 117.66112770442885 79.67182332314366 H 0.0 **** 0.06
4965 H 9.48653823318028 116.76949184425155 78.45005352156569 H 0.0 **** 0.06
4966 C 129.86863743338438 72.72186205390886 101.83602385805882 C 0.0 **** -0.24
4967 H 130.1809582119578 71.68423012132325 101.95282779743295 H 0.0 **** 0.06
4968 H 128.96242513764753 72.89534056399481 102.41682329117964 H 0.0 **** 0.06
4969 H 129.671541528837 72.92608287334832 100.78391906479851 H 0.0 **** 0.06
4970 H 130.66124396760245 73.38104181938138 102.19187138060387 H 0.0 **** 0.06
4971 C 44.54520242369803 110.80659235145619 87.76621861646862 C 0.0 **** -0.24
4972 H 45.35636249227994 110.67088669699241 88.48028492052396 H 0.0 **** 0.06
4973 H 43.838115880520775 111.54113026434264 88.15359598702776 H 0.0 **** 0.06
4974 H 44.03335280816222 109.85595573362956 87.61233381190351 H 0.0 **** 0.06
4975 H 44.951108562120154 111.15827770221853 86.81743933776039 H 0.0 **** 0.06
4976 C 109.32977845113729 24.63726568027161 57.31381523779851 C 0.0 **** -0.24
4977 H 108.45122386834205 24.20384886186912 57.793056562946504 H 0.0 **** 0.06
4978 H 109.89921033753458 23.850465208473253 56.820062508321485 H 0.0 **** 0.06
4979 H 109.95266129159174 25.120088828926583 58.06784065562647 H 0.0 **** 0.06
4980 H 109.01391333788243 25.375673473769865 56.57704755671455 H 0.0 **** 0.06
4981 C 75.12148172509387 13.293580285386753 84.92927948058902 C 0.0 **** -0.24
4982 H 76.07673281826237 12.780740455309541 85.03899773925887 H 0.0 **** 0.06
4983 H 74.3206849214261 12.651457614914648 85.29804974524194 H 0.0 **** 0.06
4984 H 74.95055163146338 13.52091022457364 83.87712908207904 H 0.0 **** 0.06
4985 H 75.13839421861888 14.220013455529482 85.50355035082715 H 0.0 **** 0.06
4986 C 17.362675008456854 73.70410782010327 122.60158544486245 C 0.0 **** -0.24
4987 H 16.72583774706476 74.04161389757779 121.7836175698854 H 0.0 **** 0.06
4988 H 18.397068067997985 73.65481119354428 122.25950009815676 H 0.0 **** 0.06
4989 H 17.039750144803243 72.71564598672893 122.9293891127067 H 0.0 **** 0.06
4990 H 17.28777943602565 74.40499375590008 123.43224479595352 H 0.0 **** 0.06
4991 C 98.0204816755043 57.48999784420347 96.32749287052243 C 0.0 **** -0.24
4992 H 99.06134116238826 57.69662307705478 96.07891692941982 H 0.0 **** 0.06
4993 H 97.38199949673873 57.782730997986874 95.49349027877344 H 0.0 **** 0.06
4994 H 97.74016154641754 58.05607333460601 97.21634701427996 H 0.0 **** 0.06
4995 H 97.89849180746745 56.42394128738303 96.52283216115066 H 0.0 **** 0.06
4996 C 106.28323579396226 117.30389100851569 44.826812380702975 C 0.0 **** -0.24
4997 H 105.48365736279146 118.0368813334367 44.932220937058204 H 0.0 **** 0.06
4998 H 105.8887193599048 116.39900341830355 44.36384073855493 H 0.0 **** 0.06
4999 H 106.68668744391732 117.06206619696268 45.80974318056618 H 0.0 **** 0.06
5000 H 107.0738790092357 117.71761308535993 44.20144466663255 H 0.0 **** 0.06
5001 C 90.55882046858352 89.71098878458062 90.74194956575198 C 0.0 **** -0.24
5002 H 91.1294147521528 90.63984791616414 90.72221677796259 H 0.0 **** 0.06
5003 H 90.76254726750163 89.18003280475531 91.67259111190666 H 0.0 **** 0.06
5004 H 90.84953280709728 89.08758168974364 89.89602791731338 H 0.0 **** 0.06
5005 H 89.49434671346947 89.93682375108091 90.67821836565014 H 0.0 **** 0.06
5006 C 74.09031792375622 50.5841772941439 32.903395628719124 C 0.0 **** -0.24
5007 H 73.05253174651263 50.83567767975643 32.68592874666525 H 0.0 **** 0.06
5008 H 74.17533438986518 50.263300978348184 33.942030361242445 H 0.0 **** 0.06
5009 H 74.71819743009023 51.46099490376008 32.74054982368307 H 0.0 **** 0.06
5010 H 74.41478518114458 49.77755101805053 32.24546891710557 H 0.0 **** 0.06
5011 C 82.29460951115911 4.371709980500071 105.34440264712654 C 0.0 **** -0.24
5012 H 81.57486334279815 4.78017823997979 104.63366239094321 H 0.0 **** 0.06
5013 H 82.91690643398061 5.177151703735802 105.73384406108096 H 0.0 **** 0.06
5014 H 82.92216841310314 3.635905546658705 104.84288788760625 H 0.0 **** 0.06
5015 H 81.76087259316388 3.895098631553026 106.16594688247095 H 0.0 **** 0.06
5016 C 33.337737427340926 65.58282341055092 18.529830037632706 C 0.0 **** -0.24
5017 H 32.30729652223573 65.2407245980063 18.629285798576404 H 0.0 **** 0.06
5018 H 33.82761881309284 65.03097884366481 17.72712441693153 H 0.0 **** 0.06
5019 H 33.8686695850314 65.41075953240282 19.46606800509892 H 0.0 **** 0.06
5020 H 33.34554703386897 66.64721152125999 18.29711481337955 H 0.0 **** 0.06
5021 C 63.47178309070706 60.199427633045985 52.32558048618935 C 0.0 **** -0.24
5022 H 62.5630737287692 60.05158798308115 51.740296522155404 H 0.0 **** 0.06
5023 H 63.91890846395404 61.158832783606016 52.06511717988495 H 0.0 **** 0.06
5024 H 64.17753047898942 59.39756740215002 52.10971886689961 H 0.0 **** 0.06
5025 H 63.22390975524773 60.19020934977664 53.38719120916976 H 0.0 **** 0.06
5026 C 75.16964373218644 82.97988941277609 97.61212265941552 C 0.0 **** -0.24
5027 H 75.79899698494825 82.9082583054005 96.72446506997468 H 0.0 **** 0.06
5028 H 74.57752466956657 83.89379985810226 97.56351001970455 H 0.0 **** 0.06
5029 H 75.79856849524691 83.00063327198453 98.50215625780818 H 0.0 **** 0.06
5030 H 74.50548828274367 82.1173022968978 97.6555670729209 H 0.0 **** 0.06
5031 C 59.819056102910395 80.19903980055918 108.34992365192342 C 0.0 **** -0.24
5032 H 58.97930296473305 80.59230196143277 108.92206957599183 H 0.0 **** 0.06
5033 H 59.94982392551589 80.78940853887148 107.4433714119514 H 0.0 **** 0.06
5034 H 59.62110374768508 79.16045004085396 108.08163510848563 H 0.0 **** 0.06
5035 H 60.726241174680695 80.25157074743693 108.95240788409946 H 0.0 **** 0.06
5036 C 110.90942501171297 92.83115678594085 41.10449737899765 C 0.0 **** -0.24
5037 H 111.05118350314365 93.66091515158334 41.796735081510434 H 0.0 **** 0.06
5038 H 111.20243852675947 93.14021346485802 40.10057527938537 H 0.0 **** 0.06
5039 H 109.86014663777473 92.5353916252782 41.102410817301774 H 0.0 **** 0.06
5040 H 111.52438186121674 91.98747420061233 41.419450228958084 H 0.0 **** 0.06
5041 C 54.64441146155562 68.15332297444778 65.81323984380228 C 0.0 **** -0.24
5042 H 53.66845873385492 68.51442928680197 65.4904676083309 H 0.0 **** 0.06
5043 H 54.61637849216433 67.9369603698083 66.88067077099494 H 0.0 **** 0.06
5044 H 55.39729729799896 68.91574713674675 65.61613905568205 H 0.0 **** 0.06
5045 H 54.89505537095877 67.24536894417537 65.26420741371577 H 0.0 **** 0.06
5046 C 86.01901178403544 127.14780805043628 66.96814766975525 C 0.0 **** -0.24
5047 H 85.43597611965876 127.99272109615183 66.60229824194344 H 0.0 **** 0.06
5048 H 86.11996642765521 126.40549931479973 66.17532331046318 H 0.0 **** 0.06
5049 H 85.51196008939235 126.69960430428893 67.82334151914786 H 0.0 **** 0.06
5050 H 87.00756377349384 127.49206665365622 67.27069750397693 H 0.0 **** 0.06
5051 C 50.54165103987154 40.4715956870674 4.662851586339798 C 0.0 **** -0.24
5052 H 50.89881011705339 41.5017009995339 4.65719981324753 H 0.0 **** 0.06
5053 H 49.67653274928168 40.38265722443248 4.005955286445555 H 0.0 **** 0.06
5054 H 50.25840846749597 40.192059512082665 5.678415337731565 H 0.0 **** 0.06
5055 H 51.334420602495214 39.81082883087737 4.312965863277327 H 0.0 **** 0.06
5056 C 54.22862424782815 27.750752616891447 109.6462985220105 C 0.0 **** -0.24
5057 H 54.65989581160896 27.24700813098798 108.78148479877665 H 0.0 **** 0.06
5058 H 53.49696866507392 27.096119498287152 110.12046736468125 H 0.0 **** 0.06
5059 H 53.73877413005343 28.670575820066432 109.32442790818129 H 0.0 **** 0.06
5060 H 55.0177901607923 27.99018910712286 110.35909849666797 H 0.0 **** 0.06
5061 C 69.32642946403189 121.26814651866526 113.42495511023013 C 0.0 **** -0.24
5062 H 69.57309748623993 120.33647004535052 112.91714192672713 H 0.0 **** 0.06
5063 H 68.30702100140206 121.5622869059896 113.17103503389104 H 0.0 **** 0.06
5064 H 70.01948058381004 122.04942390965488 113.11016414983469 H 0.0 **** 0.06
5065 H 69.4055012407888 121.12556567138793 114.5035462879223 H 0.0 **** 0.06
5066 C 29.55463062069856 88.67784155316905 122.58104226303709 C 0.0 **** -0.24
5067 H 29.87170611548568 88.18836342320355 123.50162780095454 H 0.0 **** 0.06
5068 H 28.988540655694223 89.57806434708634 122.8242759980536 H 0.0 **** 0.06
5069 H 28.927233978526147 87.99790809283985 122.00537971520063 H 0.0 **** 0.06
5070 H 30.432117375453075 88.94908334641333 121.9936783387111 H 0.0 **** 0.06
5071 C 16.619389092969477 114.93490436333823 25.558405868467354 C 0.0 **** -0.24
5072 H 16.857145087588194 115.99809003989688 25.58615022212632 H 0.0 **** 0.06
5073 H 16.755142499182163 114.50611137385548 26.55209351774201 H 0.0 **** 0.06
5074 H 17.279905657393293 114.43256844065516 24.85160960139863 H 0.0 **** 0.06
5075 H 15.583394510003846 114.80191184512151 25.244269320781548 H 0.0 **** 0.06
5076 C 24.129075271959238 100.4024778296444 100.29869532959009 C 0.0 **** -0.24
5077 H 23.66053336419938 100.82767617564218 99.41073229201203 H 0.0 **** 0.06
5078 H 25.203472072053444 100.58470509541888 100.26397869233676 H 0.0 **** 0.06
5079 H 23.94372062984141 99.32894784927515 100.32765189829394 H 0.0 **** 0.06
5080 H 23.70958504635047 100.86897604262458 101.18944769567753 H 0.0 **** 0.06
5081 C 66.85996679155232 52.87069810056943 95.1625782708123 C 0.0 **** -0.24
5082 H 67.78255706546042 52.32429155799257 94.96523446285141 H 0.0 **** 0.06
5083 H 66.47801037357857 52.59443502509254 96.14583588109613 H 0.0 **** 0.06
5084 H 66.12027833521614 52.62197076991839 94.40142967419543 H 0.0 **** 0.06
5085 H 67.06101853304295 53.941987152180445 95.13780998523691 H 0.0 **** 0.06
5086 C 105.61993675584439 54.75418841332146 68.14002061553552 C 0.0 **** -0.24
5087 H 105.96191887847499 54.56554406418354 69.1576045197535 H 0.0 **** 0.06
5088 H 105.09824753694525 55.71079518867657 68.10364297723524 H 0.0 **** 0.06
5089 H 104.9417256656042 53.95837791057153 67.83232787522584 H 0.0 **** 0.06
5090 H 106.47723574158894 54.7816024227547 67.46716148439288 H 0.0 **** 0.06
5091 C 82.40763479066305 130.8225043624816 111.55020956039431 C 0.0 **** -0.24
5092 H 82.7854579523705 130.72632523224837 112.5687122716075 H 0.0 **** 0.06
5093 H 82.75413693750625 131.76402602424056 111.12205562817527 H 0.0 **** 0.06
5094 H 81.31725801533156 130.809950527757 111.56440197423811 H 0.0 **** 0.06
5095 H 82.77352403422805 129.99211182373494 110.94716254217778 H 0.0 **** 0.06
5096 C 121.65496332301794 104.12400230450108 28.231557406693398 C 0.0 **** -0.24
5097 H 121.45144721323504 104.87570690305483 27.467980993391684 H 0.0 **** 0.06
5098 H 122.08545315432413 103.2387714324358 27.764335585367746 H 0.0 **** 0.06
5099 H 120.72471578281208 103.85537751577411 28.732865442883117 H 0.0 **** 0.06
5100 H 122.35634520462159 104.52825340712155 28.961151778435386 H 0.0 **** 0.06
5101 C 74.61419223506854 107.41046743067999 128.97702513401055 C 0.0 **** -0.24
5102 H 75.49133890771537 107.00148171915072 129.47961536115568 H 0.0 **** 0.06
5103 H 74.19766286983723 106.66012255126981 128.30556532236812 H 0.0 **** 0.06
5104 H 74.90211781304042 108.2920829857195 128.40538864295962 H 0.0 **** 0.06
5105 H 73.86753419819576 107.68789989011123 129.72075119091008 H 0.0 **** 0.06
5106 C 120.59100845058406 69.0707337821037 4.856216894639527 C 0.0 **** -0.24
5107 H 120.59281014380673 68.04570106238728 4.4853676612734255 H 0.0 **** 0.06
5108 H 121.40513849448796 69.6265107093173 4.391209648836636 H 0.0 **** 0.06
5109 H 120.72470865550514 69.06596092251195 5.9381697439136225 H 0.0 **** 0.06
5110 H 119.64048134238261 69.54434109470193 4.609109949211003 H 0.0 **** 0.06
5111 C 36.341762257828634 110.66006769318818 18.684593549554762 C 0.0 **** -0.24
5112 H 35.82330423337078 111.40342858658323 18.078885420277572 H 0.0 **** 0.06
5113 H 37.34482072872487 111.01849238457095 18.919306145579668 H 0.0 **** 0.06
5114 H 36.41119874036906 109.72430845968859 18.12954965402122 H 0.0 **** 0.06
5115 H 35.788927123778194 110.49505946015341 19.608756955982557 H 0.0 **** 0.06
5116 C 12.66564298452812 88.64627184258092 31.87795983052979 C 0.0 **** -0.24
5117 H 12.476287239248336 89.0594689787082 30.88643923695497 H 0.0 **** 0.06
5118 H 11.836014415502802 87.99990967291535 32.16475568976375 H 0.0 **** 0.06
5119 H 12.75946406793048 89.45915501989157 32.597636828368934 H 0.0 **** 0.06
5120 H 13.58840742712647 88.06774751466457 31.859717943123428 H 0.0 **** 0.06
5121 C 66.89779825847637 1.8582526477469514 100.95590092602055 C 0.0 **** -0.24
5122 H 66.95972475949668 1.663611740647383 99.88462665436137 H 0.0 **** 0.06
5123 H 67.64577955061463 1.2593306228538097 101.47669257089777 H 0.0 **** 0.06
5124 H 65.90402206402985 1.5935394369415974 101.3160664724021 H 0.0 **** 0.06
5125 H 67.08300685716574 2.9155294120112387 101.14353366796169 H 0.0 **** 0.06
5126 C 79.0095563826332 29.957906801068624 10.091754548112021 C 0.0 **** -0.24
5127 H 79.45230468023561 30.428540849391972 10.969611603757087 H 0.0 **** 0.06
5128 H 78.01065409640648 30.363002130039646 9.927524495621427 H 0.0 **** 0.06
5129 H 78.94450868743584 28.88176766124917 10.25013945593426 H 0.0 **** 0.06
5130 H 79.63164139528149 30.15978977753349 9.219520064183826 H 0.0 **** 0.06
5131 C 130.61739097193782 71.46862907959803 18.831339765199537 C 0.0 **** -0.24
5132 H 131.07269535529835 72.45819896458283 18.791067755176854 H 0.0 **** 0.06
5133 H 129.53210618669206 71.56913240662058 18.848206681692453 H 0.0 **** 0.06
5134 H 130.94955703653486 70.95342988258042 19.732440726641435 H 0.0 **** 0.06
5135 H 130.91621873619795 70.895619983064 17.95242103972373 H 0.0 **** 0.06
5136 C 45.20188661918111 15.352894696424585 124.1893500357059 C 0.0 **** -0.24
5137 H 44.18498705448413 14.982020562878347 124.06254664395297 H 0.0 **** 0.06
5138 H 45.69449137853699 14.795557678046407 124.98639049522649 H 0.0 **** 0.06
5139 H 45.17201146187757 16.41085171273204 124.45085131911765 H 0.0 **** 0.06
5140 H 45.754327884506324 15.222624865139096 123.25892976798673 H 0.0 **** 0.06
5141 C 111.66782635727957 78.05358459405886 11.446938331704203 C 0.0 **** -0.24
5142 H 112.15418787338591 79.01076749411294 11.631880962520171 H 0.0 **** 0.06
5143 H 112.19761106363266 77.26712843713824 11.983511990694979 H 0.0 **** 0.06
5144 H 111.68264091220136 77.83922086757468 10.377882091586827 H 0.0 **** 0.06
5145 H 110.63481559476172 78.0978768956586 11.79387132346693 H 0.0 **** 0.06
5146 C 0.5638542701198617 84.40868403152052 47.55965048464583 C 0.0 **** -0.24
5147 H 1.6251344539647334 84.65470553557489 47.599628972399245 H 0.0 **** 0.06
5148 H 0.0017278703510896776 85.28142690721376 47.226445913526135 H 0.0 **** 0.06
5149 H 0.22189507148391385 84.11157145318468 48.55094432565045 H 0.0 **** 0.06
5150 H 0.40712152529505374 83.58692475500378 46.85963969428914 H 0.0 **** 0.06
5151 C 2.3384046018051095 7.025461071869902 12.794072218849209 C 0.0 **** -0.24
5152 H 2.272145060247965 7.46315399602819 11.797733883801854 H 0.0 **** 0.06
5153 H 3.3690762736753754 7.078694377004677 13.14650186863632 H 0.0 **** 0.06
5154 H 2.021165966054525 5.983702495426076 12.755729747040363 H 0.0 **** 0.06
5155 H 1.6918075159518366 7.577079504227314 13.477348039251595 H 0.0 **** 0.06
5156 C 112.21651215954574 15.517587784668649 56.56169758748307 C 0.0 **** -0.24
5157 H 112.08156652236467 14.459897068473566 56.786603034194655 H 0.0 **** 0.06
5158 H 111.70460630847721 16.117527022008275 57.31430957078433 H 0.0 **** 0.06
5159 H 111.79904963008879 15.736162098070437 55.57758229361427 H 0.0 **** 0.06
5160 H 113.27988229802132 15.756595186048074 56.56604143096371 H 0.0 **** 0.06
5161 C 39.70650784191202 91.65245210142871 52.26070395829133 C 0.0 **** -0.24
5162 H 39.94397691652632 91.41292609310227 51.22423678782815 H 0.0 **** 0.06
5163 H 39.606981632422844 90.72990032396063 52.83301527747321 H 0.0 **** 0.06
5164 H 38.76793345150519 92.20685898041609 52.298791849332204 H 0.0 **** 0.06
5165 H 40.50460737055062 92.26056600184359 52.68522490424489 H 0.0 **** 0.06
5166 C 2.9897115179254286 64.71047087493372 8.586423883480478 C 0.0 **** -0.24
5167 H 2.6335747278975212 63.876726605570695 9.19175401298861 H 0.0 **** 0.06
5168 H 2.2559958016168515 65.51692062798585 8.61076684293974 H 0.0 **** 0.06
5169 H 3.1320154048804945 64.37831666813673 7.557832768004573 H 0.0 **** 0.06
5170 H 3.938296215906977 65.06933857739796 8.98610941767285 H 0.0 **** 0.06
5171 C 13.71573089558052 17.179333096728918 56.554056131950446 C 0.0 **** -0.24
5172 H 14.65740648659937 17.723544236606834 56.631048519811955 H 0.0 **** 0.06
5173 H 12.957546017092852 17.681649284685513 57.15471377052266 H 0.0 **** 0.06
5174 H 13.852677033465284 16.16179094698568 56.918465425810126 H 0.0 **** 0.06
5175 H 13.395959817471152 17.153085312912545 55.512249531690344 H 0.0 **** 0.06
5176 C 88.15663412451016 53.81579543395921 40.44679903860256 C 0.0 **** -0.24
5177 H 88.91154629513039 53.49516890599325 39.72881316187494 H 0.0 **** 0.06
5178 H 87.51925146013829 54.572699646582564 39.98896079267672 H 0.0 **** 0.06
5179 H 88.64598627273668 54.23486826699194 41.32558676239995 H 0.0 **** 0.06
5180 H 87.54999266383466 52.959818724183066 40.7425903260947 H 0.0 **** 0.06
5181 C 115.5225595845674 63.875583109675105 62.05080671090482 C 0.0 **** -0.24
5182 H 115.69416044868305 64.8765498718526 61.65590911578727 H 0.0 **** 0.06
5183 H 115.6340670797465 63.14489916608366 61.249861326733736 H 0.0 **** 0.06
5184 H 114.51388697470503 63.81439060910557 62.461126821753 H 0.0 **** 0.06
5185 H 116.24769526982931 63.666042329406324 62.83759982634351 H 0.0 **** 0.06
5186 C 52.156699356315016 61.4951867948252 130.77049896173705 C 0.0 **** -0.24
5187 H 52.190901163108435 60.53165691993104 130.2614410871777 H 0.0 **** 0.06
5188 H 51.92894960299526 61.34062611377084 131.8248791020856 H 0.0 **** 0.06
5189 H 51.38458678307535 62.11811500679465 130.3190190810599 H 0.0 **** 0.06
5190 H 53.123805873150445 61.99006692455026 130.675745744348 H 0.0 **** 0.06
5191 C 30.544536492162194 64.16543064376313 30.011225383707654 C 0.0 **** -0.24
5192 H 31.16673200096011 63.708884929780965 29.241244703473228 H 0.0 **** 0.06
5193 H 29.729561496831025 64.71425799776225 29.54000385896626 H 0.0 **** 0.06
5194 H 31.147763930225665 64.85063922388693 30.606559166842374 H 0.0 **** 0.06
5195 H 30.135847570067654 63.386227933848545 30.655100377920405 H 0.0 **** 0.06
5196 C 130.1779930778971 72.07358196950032 120.50597293310581 C 0.0 **** -0.24
5197 H 129.8820010249927 71.05483306089872 120.25520042823548 H 0.0 **** 0.06
5198 H 129.46222511097366 72.77577805742763 120.07890581453456 H 0.0 **** 0.06
5199 H 131.17050368855988 72.27347929247227 120.10114671927109 H 0.0 **** 0.06
5200 H 130.19910380407376 72.189437279717 121.59001555455731 H 0.0 **** 0.06
5201 C 123.4478994833753 37.552218555888885 27.403313211418094 C 0.0 **** -0.24
5202 H 122.37686785921409 37.37796496916582 27.50515329574813 H 0.0 **** 0.06
5203 H 123.71553622690067 37.558618400560135 26.347014935412858 H 0.0 **** 0.06
5204 H 123.99453278672621 36.75879601290319 27.91280527102475 H 0.0 **** 0.06
5205 H 123.70292586496845 38.51417352605645 27.84951577470207 H 0.0 **** 0.06
5206 C 99.57346992624653 64.26750252123526 80.82817215930359 C 0.0 **** -0.24
5207 H 99.46656507499327 63.23903108549575 80.48452367308259 H 0.0 **** 0.06
5208 H 99.46471520708727 64.29983511061891 81.91297056064037 H 0.0 **** 0.06
5209 H 98.80355513391785 64.88687225446523 80.36749131055073 H 0.0 **** 0.06
5210 H 100.55742343189283 64.64397426494816 80.55075023342012 H 0.0 **** 0.06
5211 C 117.81995724473452 67.18105465126298 55.47364064302131 C 0.0 **** -0.24
5212 H 117.58479126949462 66.12044176682743 55.561109089778824 H 0.0 **** 0.06
5213 H 117.72377343232105 67.6551462831616 56.450981080291626 H 0.0 **** 0.06
5214 H 117.12967378254294 67.64874167838227 54.77237750122907 H 0.0 **** 0.06
5215 H 118.84149408441439 67.29724875536208 55.11151650834273 H 0.0 **** 0.06
5216 C 126.11575209048402 106.65699563938837 118.40521028388949 C 0.0 **** -0.24
5217 H 126.82899796841345 105.88148562878605 118.1271869517075 H 0.0 **** 0.06
5218 H 126.64988973172653 107.51252540599849 118.8170454424263 H 0.0 **** 0.06
5219 H 125.42657599578337 106.26427133122222 119.15292708031384 H 0.0 **** 0.06
5220 H 125.5547741271703 106.96725070994871 117.52311162802897 H 0.0 **** 0.06
5221 C 129.12742037741396 88.41821300653446 128.3128688862933 C 0.0 **** -0.24
5222 H 128.0601296001194 88.19850082264432 128.30171589060475 H 0.0 **** 0.06
5223 H 129.3218941884516 89.23696928635745 129.005442742328 H 0.0 **** 0.06
5224 H 129.44996650380148 88.70521746079642 127.31110044375636 H 0.0 **** 0.06
5225 H 129.67786116021904 87.5327726455144 128.63160358498752 H 0.0 **** 0.06
5226 C 6.0789883527808115 89.43265537038181 114.1306117088334 C 0.0 **** -0.24
5227 H 5.389734224243455 89.74044113822569 114.91680514935759 H 0.0 **** 0.06
5228 H 6.924779828444542 90.12135806436916 114.09991986471125 H 0.0 **** 0.06
5229 H 5.564228233196673 89.44660748197168 113.16964976551846 H 0.0 **** 0.06
5230 H 6.4382722167646875 88.42481859001452 114.33576416923911 H 0.0 **** 0.06
5231 C 108.18756140111782 44.88755683132416 110.05274183930615 C 0.0 **** -0.24
5232 H 107.51969891006505 45.71830178464762 110.28177243742921 H 0.0 **** 0.06
5233 H 109.21864007528893 45.1878422733858 110.24230173366458 H 0.0 **** 0.06
5234 H 108.07727434848425 44.61160869611814 109.00363654964913 H 0.0 **** 0.06
5235 H 107.93580867762901 44.034153877022646 110.68236429232421 H 0.0 **** 0.06
5236 C 7.736632797503944 77.0257680953253 122.97497487654168 C 0.0 **** -0.24
5237 H 7.859469142308399 77.11999207421263 121.89489262019384 H 0.0 **** 0.06
5238 H 6.833914051674242 76.45284616861792 123.18900255888673 H 0.0 **** 0.06
5239 H 7.651448543912352 78.01734635345623 123.41818544095314 H 0.0 **** 0.06
5240 H 8.602114152973854 76.51291009165374 123.3948476861801 H 0.0 **** 0.06
5241 C 81.38134572243698 111.77284807036511 130.72978200556682 C 0.0 **** -0.24
5242 H 80.9920951648287 112.7898523053006 130.6879510478944 H 0.0 **** 0.06
5243 H 82.4698544992844 111.79817405464127 130.66813159167086 H 0.0 **** 0.06
5244 H 80.98283391262584 111.19729835312506 129.8936681443064 H 0.0 **** 0.06
5245 H 81.08053482354438 111.30674157493877 131.6670231160581 H 0.0 **** 0.06
5246 C 98.28263290536145 101.04133099572476 116.52560895713067 C 0.0 **** -0.24
5247 H 97.65911553590075 101.93519753959549 116.56461187957761 H 0.0 **** 0.06
5248 H 99.27234124262702 101.30497168846908 116.15295972474051 H 0.0 **** 0.06
5249 H 97.82620143707038 100.3097060727758 115.86017100963338 H 0.0 **** 0.06
5250 H 98.3718832764776 100.61772185331483 117.52638224974453 H 0.0 **** 0.06
5251 C 111.22515601993658 4.3697429041923215 13.276160062129662 C 0.0 **** -0.24
5252 H 111.77350031528599 5.213784429095654 13.694902138007762 H 0.0 **** 0.06
5253 H 111.14575491009694 3.5813005597259178 14.024324870272892 H 0.0 **** 0.06
5254 H 111.75549925170466 3.9912573274284 12.40256452015177 H 0.0 **** 0.06
5255 H 110.22736528302548 4.69539380029272 12.983196629178053 H 0.0 **** 0.06
5256 C 48.459366742704105 58.560585933106736 38.957939319218184 C 0.0 **** -0.24
5257 H 47.661771637260486 57.8186011640848 38.91854225970289 H 0.0 **** 0.06
5258 H 49.31052626882666 58.14984455455645 39.50083013697187 H 0.0 **** 0.06
5259 H 48.099127428554596 59.45402497921128 39.46830957540848 H 0.0 **** 0.06
5260 H 48.76520411105571 58.81954579810731 37.9436376703313 H 0.0 **** 0.06
5261 C 108.12595552258077 21.266824242771634 56.36200314175275 C 0.0 **** -0.24
5262 H 107.68419924549366 21.700573040431266 57.259143512236435 H 0.0 **** 0.06
5263 H 107.74127028256407 21.78271113277947 55.48177902368684 H 0.0 **** 0.06
5264 H 107.86851318320495 20.209293875675314 56.30461477051759 H 0.0 **** 0.06
5265 H 109.20983937906053 21.374718922200543 56.40247526057021 H 0.0 **** 0.06
5266 C 51.70557635871778 10.187405288257494 19.28953959909871 C 0.0 **** -0.24
5267 H 51.67689854909378 10.873713103132076 20.13585847268748 H 0.0 **** 0.06
5268 H 51.34246301285407 10.697140266520435 18.397437930332664 H 0.0 **** 0.06
5269 H 51.071630496514175 9.326073191108591 19.500243505107427 H 0.0 **** 0.06
5270 H 52.73060158780936 9.853604238439388 19.127562373510585 H 0.0 **** 0.06
5271 C 102.92287450187868 4.152859420800652 47.03382326200139 C 0.0 **** -0.24
5272 H 103.39879786560041 4.207940324722358 48.013261139841745 H 0.0 **** 0.06
5273 H 103.0684085886623 5.096047468817048 46.50611153172527 H 0.0 **** 0.06
5274 H 101.85672747523168 3.965329663468779 47.15774067975943 H 0.0 **** 0.06
5275 H 103.37064719908369 3.3421376582137157 46.458882989025994 H 0.0 **** 0.06
5276 C 56.69240092282456 0.250785289141783 103.85828443035052 C 0.0 **** -0.24
5277 H 56.661900296698434 1.3390146877044309 103.81435378424482 H 0.0 **** 0.06
5278 H 57.23054430726452 -0.13311559071343915 102.99080857498052 H 0.0 **** 0.06
5279 H 55.675403555509135 -0.14158881840272208 103.8571045635934 H 0.0 **** 0.06
5280 H 57.20168152588481 -0.061664737901965694 104.76893453625206 H 0.0 **** 0.06
5281 C 86.86590578757674 99.54520286509201 14.3171837999829 C 0.0 **** -0.24
5282 H 87.65277028555587 100.03299265483653 14.892051456544039 H 0.0 **** 0.06
5283 H 86.41263662311512 98.75570788948073 14.918137473972365 H 0.0 **** 0.06
5284 H 87.29114342043664 99.11339081358578 13.41093504611365 H 0.0 **** 0.06
5285 H 86.10568420027413 100.27866122433565 14.047872713627214 H 0.0 **** 0.06
5286 C 40.06267687747979 19.068939573527643 59.51126781546043 C 0.0 **** -0.24
5287 H 41.07695342499511 18.672446305801678 59.554344811943 H 0.0 **** 0.06
5288 H 39.9932870414367 19.80276444845613 58.70847172923112 H 0.0 **** 0.06
5289 H 39.819657479783274 19.545030939496286 60.46142310614056 H 0.0 **** 0.06
5290 H 39.36302860365569 18.255439668491256 59.3228491493403 H 0.0 **** 0.06
5291 C 65.02958425870256 106.97435734039618 120.45294900971783 C 0.0 **** -0.24
5292 H 66.11402887445087 106.88655042616591 120.50239780165941 H 0.0 **** 0.06
5293 H 64.58251377796685 106.4307631982154 121.28558211848588 H 0.0 **** 0.06
5294 H 64.67376665064947 106.55469255204616 119.51179132513522 H 0.0 **** 0.06
5295 H 64.7470602274538 108.02594568171824 120.51113538665763 H 0.0 **** 0.06
5296 C 69.13287510247807 58.56501985929587 113.78381911620824 C 0.0 **** -0.24
5297 H 69.7827392439956 59.251553222139066 114.32646081146203 H 0.0 **** 0.06
5298 H 69.06460931733938 58.877643997954905 112.74164426348091 H 0.0 **** 0.06
5299 H 68.1394397552782 58.57575197779697 114.23205955793702 H 0.0 **** 0.06
5300 H 69.54377707998816 57.55710514024088 113.8355870120223 H 0.0 **** 0.06
5301 C 129.839411718156 118.10198933410726 130.85170438111552 C 0.0 **** -0.24
5302 H 130.7470470145396 117.96957189730762 131.4413621741392 H 0.0 **** 0.06
5303 H 129.48931473854918 119.13000426464495 130.95020784354287 H 0.0 **** 0.06
5304 H 129.06909840282356 117.4194379155989 131.21292525337134 H 0.0 **** 0.06
5305 H 130.05188042294088 117.8876605665242 129.80438652571377 H 0.0 **** 0.06
5306 C 100.27159946856746 66.30930123339087 90.18843399419092 C 0.0 **** -0.24
5307 H 99.34892326578894 65.98938079649612 90.67192853592647 H 0.0 **** 0.06
5308 H 100.16760013900449 66.2131235264278 89.10784876526537 H 0.0 **** 0.06
5309 H 101.09622429284238 65.68240974291923 90.53117669733504 H 0.0 **** 0.06
5310 H 100.47487677119786 67.34812869258148 90.44456326843488 H 0.0 **** 0.06
5311 C 120.08679414121404 35.73951478196122 10.917632593750938 C 0.0 **** -0.24
5312 H 119.93523120476381 35.14519740213751 11.819070353989204 H 0.0 **** 0.06
5313 H 119.34351451870468 35.46037919496925 10.170274418219236 H 0.0 **** 0.06
5314 H 121.08643407960136 35.554664340288355 10.524068379329435 H 0.0 **** 0.06
5315 H 119.98142641821471 36.79743857369792 11.158708061980988 H 0.0 **** 0.06
5316 C 64.81757480069498 96.22190979880469 88.68260604107354 C 0.0 **** -0.24
5317 H 65.07125680025362 95.98582892550739 87.64881313436462 H 0.0 **** 0.06
5318 H 64.36413897725035 95.3487514225418 89.15319604291454 H 0.0 **** 0.06
5319 H 64.1125132455281 97.05314471338316 88.7029090145374 H 0.0 **** 0.06
5320 H 65.7217388822784 96.49811247810423 89.22493145337017 H 0.0 **** 0.06
5321 C 90.71263085464359 44.599648295191855 82.43920747225843 C 0.0 **** -0.24
5322 H 89.69754051448673 44.321046596745504 82.15350613989307 H 0.0 **** 0.06
5323 H 90.88536282902407 44.324396856363194 83.48047010801011 H 0.0 **** 0.06
5324 H 90.84085742042166 45.67551203246279 82.32173570902759 H 0.0 **** 0.06
5325 H 91.4254796828069 44.07663911906286 81.80295018881822 H 0.0 **** 0.06
5326 C 8.907656906526494 53.5446225361337 53.23532107286563 C 0.0 **** -0.24
5327 H 9.496936058544406 52.86828620356761 53.85521038794724 H 0.0 **** 0.06
5328 H 9.509346690948792 53.88017455360901 52.39100200825813 H 0.0 **** 0.06
5329 H 8.60140953692903 54.40633939682442 53.82852936506329 H 0.0 **** 0.06
5330 H 8.0234024690476 53.02359609527261 52.86872730789041 H 0.0 **** 0.06
5331 C 62.70582277752794 88.0159043932996 79.87832972921457 C 0.0 **** -0.24
5332 H 63.75370111676767 88.14544082848545 79.60714753465906 H 0.0 **** 0.06
5333 H 62.61179886094398 87.99780895766074 80.96512485730538 H 0.0 **** 0.06
5334 H 62.33720742936556 87.0766657178493 79.46564956344605 H 0.0 **** 0.06
5335 H 62.1210896066177 88.84390946246259 79.47756521635601 H 0.0 **** 0.06
5336 C 8.528582786977665 117.81230837034545 34.566300806474715 C 0.0 **** -0.24
5337 H 8.530728131579195 117.42423931589897 35.58548741625793 H 0.0 **** 0.06
5338 H 9.15893252754401 117.18317383728584 33.93703419296446 H 0.0 **** 0.06
5339 H 8.914977792526741 118.83131834194626 34.564878228243 H 0.0 **** 0.06
5340 H 7.509667907541797 117.80907598899242 34.17878628475884 H 0.0 **** 0.06
5341 C 95.8213297865326 79.9132453779217 98.03265774177476 C 0.0 **** -0.24
5342 H 96.79433635842517 79.76025331212222 97.56482854279204 H 0.0 **** 0.06
5343 H 95.03362351260068 79.70694082788953 97.3073710514368 H 0.0 **** 0.06
5344 H 95.74055631217578 80.94476149753066 98.37408204602991 H 0.0 **** 0.06
5345 H 95.71792977308382 79.23929488571648 98.8834924384683 H 0.0 **** 0.06
5346 C 70.19032375538923 53.8935319302762 86.9280643014117 C 0.0 **** -0.24
5347 H 70.78241810773574 54.45873900869486 87.64802938518503 H 0.0 **** 0.06
5348 H 69.45033561621908 54.550177505936006 86.47068086944373 H 0.0 **** 0.06
5349 H 69.68416633186689 53.07426287681443 87.43747993044931 H 0.0 **** 0.06
5350 H 70.84661014338835 53.49093294750077 86.15600358560383 H 0.0 **** 0.06
5351 C 89.26425607000436 50.097701669524085 40.364094748363016 C 0.0 **** -0.24
5352 H 88.3798265616299 49.96154107900641 39.74288614652437 H 0.0 **** 0.06
5353 H 90.14780853742076 49.767403793358895 39.8153963132831 H 0.0 **** 0.06
5354 H 89.16214616672664 49.51069885574097 41.27666075453375 H 0.0 **** 0.06
5355 H 89.36887911754582 51.15269975024191 40.62045509228291 H 0.0 **** 0.06
5356 C 89.47417082918247 119.6488601816623 110.74938686987466 C 0.0 **** -0.24
5357 H 89.37264746540727 120.55781959923307 110.15653845180243 H 0.0 **** 0.06
5358 H 90.5301674131554 119.40874804709715 110.86849935364226 H 0.0 **** 0.06
5359 H 88.9688019776872 118.82671675897882 110.2427647429692 H 0.0 **** 0.06
5360 H 89.02326583146338 119.80367512499578 111.73041672442689 H 0.0 **** 0.06
5361 C 5.584733440980813 100.19149147532003 69.69641706396162 C 0.0 **** -0.24
5362 H 5.357830683806938 99.12458695142284 69.68890428935386 H 0.0 **** 0.06
5363 H 5.257989346988111 100.63854253065841 68.75728121221904 H 0.0 **** 0.06
5364 H 6.65860524327681 100.33299151202455 69.81336788373926 H 0.0 **** 0.06
5365 H 5.062425512391727 100.66694311326323 70.52722913275112 H 0.0 **** 0.06
5366 C 126.28264364620512 52.229973534916326 18.18346223609342 C 0.0 **** -0.24
5367 H 125.4095752755061 51.577392892988 18.20933951171807 H 0.0 **** 0.06
5368 H 126.87910850008973 52.00227042323317 17.299785562701658 H 0.0 **** 0.06
5369 H 126.88239983703724 52.06894017522582 19.0788728675602 H 0.0 **** 0.06
5370 H 125.95693744783357 53.26975385747593 18.14619493717153 H 0.0 **** 0.06
5371 C 78.35810666226888 17.59348519281493 71.9025074609468 C 0.0 **** -0.24
5372 H 78.88816088740367 18.32998057401079 71.29805599270148 H 0.0 **** 0.06
5373 H 78.11029896641756 18.029912936177453 72.87052331143107 H 0.0 **** 0.06
5374 H 78.99156281203193 16.719043261266165 72.04850073299644 H 0.0 **** 0.06
5375 H 77.4417337901088 17.29667466033181 71.3916231513368 H 0.0 **** 0.06
5376 C 29.751442441671287 66.48321816525782 51.92902348843313 C 0.0 **** -0.24
5377 H 29.52245502524994 67.25872235050028 52.660840107469255 H 0.0 **** 0.06
5378 H 29.785317964221264 66.92319677687169 50.93284043076363 H 0.0 **** 0.06
5379 H 28.979234796388937 65.71408557758667 51.96209814599757 H 0.0 **** 0.06
5380 H 30.71801181530455 66.03795095040178 52.16335911417899 H 0.0 **** 0.06
5381 C 49.229716749509265 38.91354398755436 130.8151040139898 C 0.0 **** -0.24
5382 H 49.778973610263435 38.988578529773406 129.87587067520252 H 0.0 **** 0.06
5383 H 48.166014852297536 38.80333751805193 130.6057974464445 H 0.0 **** 0.06
5384 H 49.39370507175835 39.81614792822461 131.40425294130262 H 0.0 **** 0.06
5385 H 49.583022083239996 38.04647918225072 131.3736283739562 H 0.0 **** 0.06
5386 C 52.634504138142304 1.6523168676126616 52.98948109084242 C 0.0 **** -0.24
5387 H 53.571538225898024 2.1015479720554993 53.316490155926246 H 0.0 **** 0.06
5388 H 52.687308035868895 1.4378359896271817 51.92144118092554 H 0.0 **** 0.06
5389 H 51.81361712215953 2.342265135425521 53.181169071463756 H 0.0 **** 0.06
5390 H 52.465839516402156 0.7256558021154689 53.537791192310024 H 0.0 **** 0.06
5391 C 99.80913259360122 125.26607807557784 115.81799861788068 C 0.0 **** -0.24
5392 H 100.47156035313941 126.12483520128288 115.70678188189444 H 0.0 **** 0.06
5393 H 99.83433258067558 124.92036085349463 116.85197206880812 H 0.0 **** 0.06
5394 H 100.1412126995238 124.46446028015038 115.15792876659197 H 0.0 **** 0.06
5395 H 98.79251011408093 125.55524610286358 115.55494737397876 H 0.0 **** 0.06
5396 C 42.307682253889254 5.367143944820697 10.918410500929554 C 0.0 **** -0.24
5397 H 42.016689608648164 6.244089138844714 11.496928342460507 H 0.0 **** 0.06
5398 H 41.57670622739599 4.573151759391777 11.070893031448946 H 0.0 **** 0.06
5399 H 43.28955410568696 5.025227570145631 11.247692146225518 H 0.0 **** 0.06
5400 H 42.348633878163724 5.626899141341141 9.86123379025716 H 0.0 **** 0.06
5401 C 92.64634005499613 115.9756402343489 81.8420861160512 C 0.0 **** -0.24
5402 H 92.59870116127682 116.44004517794488 82.82683686112827 H 0.0 **** 0.06
5403 H 93.4932379860281 115.289723665938 81.80506071382055 H 0.0 **** 0.06
5404 H 92.7693109381447 116.74696882857714 81.08271351071893 H 0.0 **** 0.06
5405 H 91.72411789271808 115.42496113277318 81.65602619419481 H 0.0 **** 0.06
5406 C 97.15963455729003 113.03597974346032 93.93524043690726 C 0.0 **** -0.24
5407 H 97.94865850567493 112.84733932016785 93.20749978974544 H 0.0 **** 0.06
5408 H 97.44580894733164 112.61187089942577 94.89807604930141 H 0.0 **** 0.06
5409 H 96.23386488942522 112.57335372845732 93.59407167150994 H 0.0 **** 0.06
5410 H 97.01185628645607 114.11082956447349 94.04132969640585 H 0.0 **** 0.06
5411 C 68.32451904017981 22.502911333187114 90.80292663548752 C 0.0 **** -0.24
5412 H 69.36625034628901 22.329639450125512 91.07388279501865 H 0.0 **** 0.06
5413 H 68.25510692328467 23.395989575868157 90.18211775685279 H 0.0 **** 0.06
5414 H 67.73258861140764 22.6425363409532 91.70829604986173 H 0.0 **** 0.06
5415 H 67.94520136630797 21.64381782214349 90.24958685600464 H 0.0 **** 0.06
5416 C 9.267451402456416 127.96076861403498 24.734788111113943 C 0.0 **** -0.24
5417 H 10.062303372019898 127.44062287642322 24.20059600578361 H 0.0 **** 0.06
5418 H 9.390538966981325 129.03693847556082 24.610839003839374 H 0.0 **** 0.06
5419 H 9.316447251569613 127.7085841728128 25.794244529857735 H 0.0 **** 0.06
5420 H 8.301166908516407 127.65705446242205 24.332724145289916 H 0.0 **** 0.06
5421 C 4.298462160472582 49.99270010913125 77.60742780279435 C 0.0 **** -0.24
5422 H 4.912581939336519 50.748150355518646 77.1173693505 H 0.0 **** 0.06
5423 H 4.235977348667319 50.211694736023105 78.67326290176085 H 0.0 **** 0.06
5424 H 4.746845405227134 49.00972475546723 77.46291692630477 H 0.0 **** 0.06
5425 H 3.2978990870167593 50.00229830934194 77.17427434092333 H 0.0 **** 0.06
5426 C 36.27765226716758 79.11980416251694 17.603211307614288 C 0.0 **** -0.24
5427 H 35.33757927613003 78.86608178378346 17.113125390088953 H 0.0 **** 0.06
5428 H 36.12850145579908 79.98973388857819 18.24380934760552 H 0.0 **** 0.06
5429 H 37.03037631981252 79.3481573756812 16.849642003235317 H 0.0 **** 0.06
5430 H 36.61194874633007 78.27682179867384 18.207078021244456 H 0.0 **** 0.06
5431 C 90.9178298263586 13.517699505053741 41.532556142843816 C 0.0 **** -0.24
5432 H 90.62736564970825 12.636542897065254 40.96033759049453 H 0.0 **** 0.06
5433 H 91.52974917098283 13.212395481715646 42.38182446556516 H 0.0 **** 0.06
5434 H 90.02396192266353 14.02736856293626 41.89353972425209 H 0.0 **** 0.06
5435 H 91.48802163106483 14.192764957673774 40.89556609153351 H 0.0 **** 0.06
5436 C 73.38853438877197 18.989970695756035 41.841395313702094 C 0.0 **** -0.24
5437 H 72.36969075635648 18.95734815840926 41.45410995636331 H 0.0 **** 0.06
5438 H 73.70691977667889 20.02799432218987 41.9388641801749 H 0.0 **** 0.06
5439 H 74.05371347088789 18.468954813064236 41.15335340748567 H 0.0 **** 0.06
5440 H 73.42203747899629 18.506651937325884 42.817083743057935 H 0.0 **** 0.06
5441 C 14.74055274805761 53.618721338876014 75.97455410318244 C 0.0 **** -0.24
5442 H 14.735560401928609 54.016722285291024 76.9893416669384 H 0.0 **** 0.06
5443 H 14.476889483398026 54.41134685599047 75.27337080582336 H 0.0 **** 0.06
5444 H 14.014952827390246 52.80900930510819 75.89780358197117 H 0.0 **** 0.06
5445 H 15.734698771864743 53.24025066827295 75.73782836168834 H 0.0 **** 0.06
5446 C 44.891050327113305 100.7541222303138 45.114107995129416 C 0.0 **** -0.24
5447 H 43.86300779132668 101.11669147754536 45.09862958297464 H 0.0 **** 0.06
5448 H 44.960608484239174 99.89072674060274 45.776559063772766 H 0.0 **** 0.06
5449 H 45.54939524577364 101.54404098609893 45.47543857565593 H 0.0 **** 0.06
5450 H 45.18829718011298 100.46517467563888 44.10658726388317 H 0.0 **** 0.06
5451 C 51.1747173715067 66.72033218876425 54.458891219049065 C 0.0 **** -0.24
5452 H 50.77021953843027 67.60505380981124 54.9517702020126 H 0.0 **** 0.06
5453 H 51.64267595572089 66.0728711262231 55.200592248640476 H 0.0 **** 0.06
5454 H 51.916795219033645 67.02416520281514 53.72037144654092 H 0.0 **** 0.06
5455 H 50.36725283541733 66.18065980472733 53.963351866633445 H 0.0 **** 0.06
5456 C 128.91897355235986 9.260251665325256 87.74609627495227 C 0.0 **** -0.24
5457 H 128.6347224005821 8.431698135222518 88.39353407821147 H 0.0 **** 0.06
5458 H 129.66136598069764 9.87881904069576 88.25210462470739 H 0.0 **** 0.06
5459 H 128.03927361169943 9.86226989488722 87.51907750834988 H 0.0 **** 0.06
5460 H 129.3413281402421 8.870304500592965 86.81952769730526 H 0.0 **** 0.06
5461 C 15.10200470407895 94.1065850751911 123.81643567343934 C 0.0 **** -0.24
5462 H 15.001205361180652 93.18021047718855 124.3831208968121 H 0.0 **** 0.06
5463 H 16.114122344322823 94.49533964193137 123.93477128875821 H 0.0 **** 0.06
5464 H 14.385305391741781 94.83826533062393 124.18589125154304 H 0.0 **** 0.06
5465 H 14.9105486402744 93.90908323556863 122.76156881660972 H 0.0 **** 0.06
5466 C 45.031932551688335 78.38442764511042 52.86913764816617 C 0.0 **** -0.24
5467 H 44.65030288620269 79.26068665363779 52.34622623005848 H 0.0 **** 0.06
5468 H 45.79688738375707 78.69124305439306 53.583146706238566 H 0.0 **** 0.06
5469 H 45.46464307346646 77.69100689395673 52.14773778854668 H 0.0 **** 0.06
5470 H 44.214792270592035 77.8940331011177 53.399920583496225 H 0.0 **** 0.06
5471 C 105.04150815281656 82.91292084720551 54.728880317277714 C 0.0 **** -0.24
5472 H 104.3818046496641 82.68783647879084 55.56598288047434 H 0.0 **** 0.06
5473 H 105.88316812595008 82.21965704983269 54.73391206697329 H 0.0 **** 0.06
5474 H 105.41188016661175 83.93384087209346 54.82317431162846 H 0.0 **** 0.06
5475 H 104.49079140259727 82.81087665062118 53.79390946224834 H 0.0 **** 0.06
5476 C 25.068582724193085 25.602458333366485 87.96115364312337 C 0.0 **** -0.24
5477 H 25.498847723563344 26.17260215360369 87.13792553822908 H 0.0 **** 0.06
5478 H 24.803543349236122 26.280317337174353 88.77297493437857 H 0.0 **** 0.06
5479 H 25.798350040693343 24.875110440638906 88.3186858099685 H 0.0 **** 0.06
5480 H 24.17597473776803 25.081466083335215 87.61547387253434 H 0.0 **** 0.06
5481 C 66.41955402248604 83.67916191723248 65.55176231226511 C 0.0 **** -0.24
5482 H 67.20504740394026 84.39277168468521 65.8005287053191 H 0.0 **** 0.06
5483 H 65.55715158432926 83.84960576887883 66.19589224854252 H 0.0 **** 0.06
5484 H 66.78958525706989 82.66414386571788 65.69939279438142 H 0.0 **** 0.06
5485 H 66.12575011952052 83.81088266121341 64.50951402833084 H 0.0 **** 0.06
5486 C 33.25485877130106 3.864388887324896 3.9279782071981906 C 0.0 **** -0.24
5487 H 32.87208909534206 2.8450371344085212 3.9833756783211847 H 0.0 **** 0.06
5488 H 34.266086288387726 3.8507619632961116 3.5217225377709624 H 0.0 **** 0.06
5489 H 33.26823775331775 4.300543324246938 4.926630177602121 H 0.0 **** 0.06
5490 H 32.610434090535534 4.459167073068148 3.2805268825504506 H 0.0 **** 0.06
5491 C 127.46944389080025 19.350376820684318 69.29094723864974 C 0.0 **** -0.24
5492 H 128.15126542110258 20.14059641086908 69.60591690999861 H 0.0 **** 0.06
5493 H 127.86717710148466 18.8632146470824 68.39988671433626 H 0.0 **** 0.06
5494 H 126.4949129958247 19.781048151348955 69.06479881339173 H 0.0 **** 0.06
5495 H 127.36744741821863 18.617717634104025 70.09126510244874 H 0.0 **** 0.06
5496 C 94.41857295922279 69.59112781628937 114.54456683924082 C 0.0 **** -0.24
5497 H 94.97076833179025 68.94528395478763 113.86085452787052 H 0.0 **** 0.06
5498 H 94.62882956313615 69.29575078096069 115.5725347575798 H 0.0 **** 0.06
5499 H 93.34999698273344 69.4962908914539 114.35010388325298 H 0.0 **** 0.06
5500 H 94.72500625377825 70.62572859933407 114.39310635880639 H 0.0 **** 0.06
5501 C 74.46256568356529 71.5013101368719 75.12236073467614 C 0.0 **** -0.24
5502 H 73.92336881531469 72.05736167457775 74.35508573556083 H 0.0 **** 0.06
5503 H 75.50691777238313 71.81473124784623 75.13116076921662 H 0.0 **** 0.06
5504 H 74.40486034712211 70.43455268187012 74.90461287523291 H 0.0 **** 0.06
5505 H 74.01433977516479 71.69883364971224 76.09569542624189 H 0.0 **** 0.06
5506 C 34.43317774005031 5.189848617380193 116.09791849421565 C 0.0 **** -0.24
5507 H 35.23974356870093 5.885489437864564 115.86382888000789 H 0.0 **** 0.06
5508 H 33.54139359736102 5.464535916372768 115.53612199896232 H 0.0 **** 0.06
5509 H 34.21828765461501 5.231029101864905 117.16564593044016 H 0.0 **** 0.06
5510 H 34.73690436738735 4.1779648246180585 115.82695377670677 H 0.0 **** 0.06
5511 C 73.01836219115997 51.586197759673325 25.4544624171385 C 0.0 **** -0.24
5512 H 73.50913241837931 51.13902522112659 24.589191446064497 H 0.0 **** 0.06
5513 H 73.67183305062699 51.509542003257906 26.323027990915577 H 0.0 **** 0.06
5514 H 72.08452825515944 51.0597589091891 25.65335641436385 H 0.0 **** 0.06
5515 H 72.8069979453132 52.636240727011966 25.24943934784706 H 0.0 **** 0.06
5516 C 33.097653545042526 24.151344254895655 88.84323578668292 C 0.0 **** -0.24
5517 H 33.56445054961288 25.135672547155025 88.80430185210409 H 0.0 **** 0.06
5518 H 32.867894014236796 23.899827273368565 89.8791384336325 H 0.0 **** 0.06
5519 H 33.78110892589703 23.408889340522293 88.43199269938444 H 0.0 **** 0.06
5520 H 32.17798795142727 24.162894924628517 88.25967331710567 H 0.0 **** 0.06
5521 C 66.32973425607082 15.505907370364895 113.1803614943048 C 0.0 **** -0.24
5522 H 65.62546804177666 16.18031436215327 112.69174317677687 H 0.0 **** 0.06
5523 H 65.77977023623666 14.70551397623342 113.67575071848876 H 0.0 **** 0.06
5524 H 66.9099012308553 16.060297408002782 113.91811039705613 H 0.0 **** 0.06
5525 H 67.00025310103283 15.079339477218554 112.43480818183008 H 0.0 **** 0.06
5526 C 78.79543512632762 96.91744476877636 46.29159935602954 C 0.0 **** -0.24
5527 H 78.55241608538256 96.54881001565417 45.2954238744261 H 0.0 **** 0.06
5528 H 79.20072529505512 97.92650467620678 46.21677656771709 H 0.0 **** 0.06
5529 H 79.53525294230246 96.26136714280972 46.750837038645855 H 0.0 **** 0.06
5530 H 77.89392530591562 96.93211497699451 46.90419653557348 H 0.0 **** 0.06
5531 C 77.34241533578493 63.05208493364252 87.35940617968436 C 0.0 **** -0.24
5532 H 76.73961615173718 62.34208130699096 86.79429345464627 H 0.0 **** 0.06
5533 H 78.22704167883057 62.54923265699999 87.74925775642424 H 0.0 **** 0.06
5534 H 76.75545174590596 63.44860756223099 88.18782818283199 H 0.0 **** 0.06
5535 H 77.64717665376324 63.870835935011684 86.7061260613167 H 0.0 **** 0.06
5536 C 61.69796780676009 6.911763288158653 62.541478706889365 C 0.0 **** -0.24
5537 H 62.02465402435669 6.340709813775419 61.67211713482594 H 0.0 **** 0.06
5538 H 62.44627578998916 6.829839720788897 63.33060115179809 H 0.0 **** 0.06
5539 H 60.7472114648406 6.518084364056591 62.898912159511596 H 0.0 **** 0.06
5540 H 61.57663159566633 7.9590015688214635 62.26278706219114 H 0.0 **** 0.06
5541 C 22.64922113368354 11.41831691776477 12.98743621904643 C 0.0 **** -0.24
5542 H 23.01751371196511 12.416217620326478 12.746965223571578 H 0.0 **** 0.06
5543 H 23.41733098848232 10.869925415380777 13.533190291020716 H 0.0 **** 0.06
5544 H 22.409914265447384 10.888682284974635 12.06532242636797 H 0.0 **** 0.06
5545 H 21.753871333679655 11.500290147798353 13.602136544356739 H 0.0 **** 0.06
5546 C 30.5508695851874 126.32222907467833 47.98950824323032 C 0.0 **** -0.24
5547 H 29.762688834163328 126.2861933448604 47.236835636986 H 0.0 **** 0.06
5548 H 30.951667770828607 125.32009074931888 48.142675068742335 H 0.0 **** 0.06
5549 H 30.140464504544923 126.69740369753785 48.92682789118287 H 0.0 **** 0.06
5550 H 31.346893696817872 126.98478431304886 47.650053347714035 H 0.0 **** 0.06
5551 C 88.45402231424349 25.845583732104885 99.66934396908886 C 0.0 **** -0.24
5552 H 87.83698855226248 24.97589192410154 99.8943749551168 H 0.0 **** 0.06
5553 H 89.41620482314822 25.74808197796601 100.17262790961057 H 0.0 **** 0.06
5554 H 87.94985268804912 26.74742311938357 100.01789845115043 H 0.0 **** 0.06
5555 H 88.61221668048935 25.91006946633801 98.59322475977797 H 0.0 **** 0.06
5556 C 121.2881380026328 49.241313465683135 66.322790278844 C 0.0 **** -0.24
5557 H 120.4048688897635 49.252843840307875 66.96175680443571 H 0.0 **** 0.06
5558 H 122.14133644235444 49.63585398727518 66.87655718834569 H 0.0 **** 0.06
5559 H 121.10845150006642 49.85976745664327 65.4432250973048 H 0.0 **** 0.06
5560 H 121.49829867882002 48.21875072596623 66.01103181265248 H 0.0 **** 0.06
5561 C 67.58037912233283 4.721048513123122 30.894151072595918 C 0.0 **** -0.24
5562 H 67.93747429375883 4.020511466067433 31.649136081290038 H 0.0 **** 0.06
5563 H 66.71559950626535 5.2620498133887565 31.280012902603744 H 0.0 **** 0.06
5564 H 67.2956132429152 4.172278402122345 29.996240024543397 H 0.0 **** 0.06
5565 H 68.37403304107262 5.428620695752983 30.651100423333304 H 0.0 **** 0.06
5566 C 36.92456810493363 77.45564383101696 73.22004015833897 C 0.0 **** -0.24
5567 H 36.5246094778378 78.2831229982655 73.80664039053536 H 0.0 **** 0.06
5568 H 37.98270589916012 77.32833360112696 73.44740759898241 H 0.0 **** 0.06
5569 H 36.80400885687419 77.67339446688132 72.15856447313601 H 0.0 **** 0.06
5570 H 36.38644979490735 76.54067480905385 73.46776347806633 H 0.0 **** 0.06
5571 C 66.41254940042904 72.32860820384172 14.304635847078345 C 0.0 **** -0.24
5572 H 66.8141808676508 71.57096659991703 13.632788575638159 H 0.0 **** 0.06
5573 H 65.42138381588461 72.02634930081979 14.64220182261053 H 0.0 **** 0.06
5574 H 66.34281163213916 73.2810705820969 13.778437616587865 H 0.0 **** 0.06
5575 H 67.07266947172974 72.43717730547189 15.165155287743914 H 0.0 **** 0.06
5576 C 103.3074687370789 50.66441545443415 24.84207497738248 C 0.0 **** -0.24
5577 H 103.40979644891455 51.00417940566123 23.81221193871025 H 0.0 **** 0.06
5578 H 102.25241020803368 50.524668792847265 25.075873604036218 H 0.0 **** 0.06
5579 H 103.73351214600861 51.409254341616204 25.5137910497059 H 0.0 **** 0.06
5580 H 103.83628472243964 49.71887434176402 24.966405931993194 H 0.0 **** 0.06
5581 C 17.110456318183424 94.58908986549619 62.240022263003794 C 0.0 **** -0.24
5582 H 16.802493734332757 94.28435262944716 61.240146922063616 H 0.0 **** 0.06
5583 H 16.37310936198253 94.24703499897497 62.966748101160505 H 0.0 **** 0.06
5584 H 17.185730176257096 95.6760291720681 62.28170320661576 H 0.0 **** 0.06
5585 H 18.080492000161087 94.1489426614946 62.471490822175355 H 0.0 **** 0.06
5586 C 86.37932993860164 28.115993421846042 110.82582876423675 C 0.0 **** -0.24
5587 H 85.65370786713629 28.708680610221904 111.38418981054394 H 0.0 **** 0.06
5588 H 86.2693516023831 28.317236335083578 109.76042860421671 H 0.0 **** 0.06
5589 H 86.20566328674624 27.057267239728958 111.01670883411992 H 0.0 **** 0.06
5590 H 87.38738462225535 28.382642639458368 111.14401179697717 H 0.0 **** 0.06
5591 C 24.464775549868364 17.017282521876588 84.17628689346182 C 0.0 **** -0.24
5592 H 23.72403466469882 17.58818823264162 84.73629143589508 H 0.0 **** 0.06
5593 H 24.309215292770546 17.170494314294878 83.10860548239611 H 0.0 **** 0.06
5594 H 24.360395102080872 15.958671419251626 84.41182811130747 H 0.0 **** 0.06
5595 H 25.464253236881405 17.35396228023071 84.45060702178645 H 0.0 **** 0.06
5596 C 26.23048304580246 50.680476622361255 106.5533996636042 C 0.0 **** -0.24
5597 H 25.44878688258649 49.98332929773147 106.251808580782 H 0.0 **** 0.06
5598 H 26.63149293038623 51.17995752706247 105.67138244387418 H 0.0 **** 0.06
5599 H 27.027739214636995 50.135422605905035 107.05797685801915 H 0.0 **** 0.06
5600 H 25.81122163562432 51.42297382124241 107.23327120783775 H 0.0 **** 0.06
5601 C 33.807748740215985 34.9347175775535 32.51062859214818 C 0.0 **** -0.24
5602 H 34.71332427281725 34.35614528395985 32.330877456641645 H 0.0 **** 0.06
5603 H 34.06470804416133 35.86256258334191 33.022652113472816 H 0.0 **** 0.06
5604 H 33.123789840073215 34.355379118478 33.13082423941711 H 0.0 **** 0.06
5605 H 33.3281982067826 35.164932377468574 31.559174489888107 H 0.0 **** 0.06
5606 C 7.793427509643124 66.77607555203126 9.086127254914949 C 0.0 **** -0.24
5607 H 7.794596343168081 66.07775656366505 8.249375393671954 H 0.0 **** 0.06
5608 H 8.210490467817294 66.28679565719546 9.967475798614498 H 0.0 **** 0.06
5609 H 6.771019192497562 67.09154964549525 9.29567160665686 H 0.0 **** 0.06
5610 H 8.397261880141343 67.64730801103053 8.83343081190145 H 0.0 **** 0.06
5611 C 32.44560353211028 65.13555892970692 1.2282673323607867 C 0.0 **** -0.24
5612 H 33.20812454120028 65.86178968259401 1.5099694439452414 H 0.0 **** 0.06
5613 H 32.75754658569076 64.14053344177921 1.5471534148709694 H 0.0 **** 0.06
5614 H 32.31506624929216 65.14675281994408 0.1467877396957178 H 0.0 **** 0.06
5615 H 31.50315374483364 65.39383989153202 1.711473116672682 H 0.0 **** 0.06
5616 C 82.22543626154221 30.16405213730144 60.59097928738787 C 0.0 **** -0.24
5617 H 81.58696375207226 29.594523348568032 59.914389029393675 H 0.0 **** 0.06
5618 H 82.08362850181433 31.229805661687294 60.411961277799136 H 0.0 **** 0.06
5619 H 83.26832134311894 29.90076654588671 60.41483200395571 H 0.0 **** 0.06
5620 H 81.96057137150522 29.929455747371037 61.62166428282883 H 0.0 **** 0.06
5621 C 35.88989863737292 23.77749159249521 77.85177348861076 C 0.0 **** -0.24
5622 H 36.111354114303815 23.215277740477035 76.94546811112906 H 0.0 **** 0.06
5623 H 36.80015298479203 24.256417855788783 78.21277644649295 H 0.0 **** 0.06
5624 H 35.5082956125553 23.100019248779404 78.6153432615076 H 0.0 **** 0.06
5625 H 35.14077520383919 24.53806981672146 77.63351155626455 H 0.0 **** 0.06
5626 C 54.659145866588716 6.409176194625928 107.9818504427343 C 0.0 **** -0.24
5627 H 55.58652798861982 6.9404401713943 108.19320652124352 H 0.0 **** 0.06
5628 H 54.183214361557816 6.843388193884493 107.10213590994354 H 0.0 **** 0.06
5629 H 53.98821617373045 6.494765420799354 108.83670909176088 H 0.0 **** 0.06
5630 H 54.877232022623275 5.358011048145471 107.79512687071721 H 0.0 **** 0.06
5631 C 121.5848018021905 63.331537244869324 18.450405239166983 C 0.0 **** -0.24
5632 H 122.106814486204 62.65467114083597 17.77411646985348 H 0.0 **** 0.06
5633 H 122.14615361179065 63.41903753325654 19.381093351586536 H 0.0 **** 0.06
5634 H 120.59079189753442 62.93778889893444 18.660723987284463 H 0.0 **** 0.06
5635 H 121.49589176173305 64.3126656712235 17.984760049251292 H 0.0 **** 0.06
5636 C 34.178158286763676 127.19058298480019 69.06853669895483 C 0.0 **** -0.24
5637 H 34.095215088229054 127.79621602447207 69.9707969145779 H 0.0 **** 0.06
5638 H 34.943868494486765 127.61311202762667 68.41636979487643 H 0.0 **** 0.06
5639 H 33.22112008919015 127.1813464906675 68.54746855312888 H 0.0 **** 0.06
5640 H 34.45408745945491 126.17127662198527 69.33983751898069 H 0.0 **** 0.06
5641 C 37.63124022065131 66.29665582369171 126.82440234410214 C 0.0 **** -0.24
5642 H 37.00254704208709 65.95315333961946 127.64583000017379 H 0.0 **** 0.06
5643 H 37.38263730058276 67.33079938333441 126.5854815013669 H 0.0 **** 0.06
5644 H 37.45948846807016 65.66978312696466 125.94959298884618 H 0.0 **** 0.06
5645 H 38.67837417802633 66.2327397193149 127.1178518242444 H 0.0 **** 0.06
5646 C 40.52410677340555 105.42158175027487 106.87850817245668 C 0.0 **** -0.24
5647 H 41.507764607880844 105.7043033746353 106.50197360030494 H 0.0 **** 0.06
5648 H 40.07693389672545 106.26895049790757 107.39765175592704 H 0.0 **** 0.06
5649 H 40.62670724869156 104.58437282109666 107.56883477276692 H 0.0 **** 0.06
5650 H 39.88732967167155 105.12816773768049 106.04373177855771 H 0.0 **** 0.06
5651 C 70.65566974939367 96.40111133697886 46.19361228016854 C 0.0 **** -0.24
5652 H 70.14708545599707 96.18039528795515 47.1322868420809 H 0.0 **** 0.06
5653 H 71.5149704835282 95.74020898906676 46.08196650359875 H 0.0 **** 0.06
5654 H 70.991952547678 97.43724801914607 46.19749113782916 H 0.0 **** 0.06
5655 H 69.96699490767469 96.24619944935739 45.362510728401105 H 0.0 **** 0.06
5656 C 51.77550068780292 119.43532720522217 62.67632096369533 C 0.0 **** -0.24
5657 H 51.132409153171025 118.92140118451579 63.389474306744404 H 0.0 **** 0.06
5658 H 51.704181469262835 118.9472614020022 61.704764603583044 H 0.0 **** 0.06
5659 H 52.80758736180687 119.39854797707949 63.026223671439936 H 0.0 **** 0.06
5660 H 51.459685958324926 120.47474092173667 62.586278422576754 H 0.0 **** 0.06
5661 C 14.503276796847786 24.661993639963 62.09677617840006 C 0.0 **** -0.24
5662 H 13.605525832174635 24.4631937783479 62.683745851303655 H 0.0 **** 0.06
5663 H 14.47741724145152 24.067473733231644 61.183095227437434 H 0.0 **** 0.06
5664 H 15.38449014126246 24.394410192312215 62.67960771032159 H 0.0 **** 0.06
5665 H 14.54342046494196 25.720232246042315 61.84200586562886 H 0.0 **** 0.06
5666 C 37.29235654154036 64.64549660900522 35.532072674053495 C 0.0 **** -0.24
5667 H 36.725280562171235 64.61854376866444 34.60137300707879 H 0.0 **** 0.06
5668 H 37.969967205320756 63.79277698908385 35.56902511113117 H 0.0 **** 0.06
5669 H 36.60488223990757 64.60062226062425 36.377091537781894 H 0.0 **** 0.06
5670 H 37.867626562834005 65.56973617478678 35.58045721016282 H 0.0 **** 0.06
5671 C 31.545864665163975 129.4573826985425 45.788165738096154 C 0.0 **** -0.24
5672 H 31.688741444351166 128.43919301222445 45.42472589383171 H 0.0 **** 0.06
5673 H 31.935187116917916 130.1623462238343 45.05236207561167 H 0.0 **** 0.06
5674 H 32.07772098438261 129.5850173110326 46.730775258049334 H 0.0 **** 0.06
5675 H 30.483153143435572 129.64177715191252 45.941519277662344 H 0.0 **** 0.06
5676 C 12.016896826833602 127.04778262873899 48.29057357146732 C 0.0 **** -0.24
5677 H 11.012227913947555 127.15886969166002 48.69889761903576 H 0.0 **** 0.06
5678 H 12.203246464935518 127.83950461402455 47.56452149788066 H 0.0 **** 0.06
5679 H 12.103529626881397 126.07778275106023 47.80085378212658 H 0.0 **** 0.06
5680 H 12.746172923996738 127.114740253747 49.09765256257489 H 0.0 **** 0.06
5681 C 78.97034688975671 130.17246544243517 66.28990058795733 C 0.0 **** -0.24
5682 H 78.18923207810715 130.73542883946592 65.77740919825226 H 0.0 **** 0.06
5683 H 78.56056287930069 129.2272178189725 66.64644439902847 H 0.0 **** 0.06
5684 H 79.33943730477587 130.75217314958252 67.13647944359495 H 0.0 **** 0.06
5685 H 79.78980945335422 129.9770733153653 65.59866006536772 H 0.0 **** 0.06
5686 C 118.6828728620745 30.18156420538577 116.3183898443354 C 0.0 **** -0.24
5687 H 119.17271128354793 30.187673804571546 115.34479575541496 H 0.0 **** 0.06
5688 H 117.60687746919606 30.293459293491537 116.18477144912487 H 0.0 **** 0.06
5689 H 119.0626534852509 31.006050628294986 116.92219139574439 H 0.0 **** 0.06
5690 H 118.89001036195287 29.23642807958089 116.82245268825778 H 0.0 **** 0.06
5691 C 78.6397181242187 44.18841032041095 51.11738699622926 C 0.0 **** -0.24
5692 H 79.57364389665395 44.719716942322435 51.30262315547711 H 0.0 **** 0.06
5693 H 78.37121079450742 43.609061203196944 52.000750388184755 H 0.0 **** 0.06
5694 H 78.76620843488907 43.51845332374464 50.26708276833217 H 0.0 **** 0.06
5695 H 77.85010405661717 44.90687878114019 50.89980918327798 H 0.0 **** 0.06
5696 C 104.55110490654835 80.04764684364761 10.74490948548879 C 0.0 **** -0.24
5697 H 104.04390745957903 80.755821807884 10.089684762026138 H 0.0 **** 0.06
5698 H 103.81118277541793 79.43625656125278 11.260308909159164 H 0.0 **** 0.06
5699 H 105.14686265220146 80.59267747205945 11.47678568111104 H 0.0 **** 0.06
5700 H 105.20229289077997 79.4066513150461 10.150785424304217 H 0.0 **** 0.06
5701 C 111.06125490664435 43.980176524323724 120.53776184434341 C 0.0 **** -0.24
5702 H 110.79157417607628 44.34103360728771 119.54511238463881 H 0.0 **** 0.06
5703 H 112.04722901238061 43.514632721284585 120.49941310942204 H 0.0 **** 0.06
5704 H 110.32608856192216 43.247944973429185 120.86974347143922 H 0.0 **** 0.06
5705 H 111.08163848515586 44.818019004785825 121.23508600734557 H 0.0 **** 0.06
5706 C 93.2480684540997 14.34139183677712 90.26206761565999 C 0.0 **** -0.24
5707 H 93.43581400214995 15.346686983783115 89.88608796556156 H 0.0 **** 0.06
5708 H 92.3218149327092 13.959409774781847 89.8302821241059 H 0.0 **** 0.06
5709 H 93.15796126571976 14.36978272251801 91.3478369770263 H 0.0 **** 0.06
5710 H 94.07512223421045 13.68813292080199 89.98299355085581 H 0.0 **** 0.06
5711 C 106.84352232752745 105.46522089526572 7.039544768799374 C 0.0 **** -0.24
5712 H 107.36176307682068 105.5754911902013 6.086893485659232 H 0.0 **** 0.06
5713 H 106.84481757727157 104.41525891746238 7.333329847280083 H 0.0 **** 0.06
5714 H 105.81457085371493 105.81222298449129 6.935160895122465 H 0.0 **** 0.06
5715 H 107.3514277913768 106.05634471757945 7.800728756456806 H 0.0 **** 0.06
5716 C 39.96824762216059 77.61562914416692 119.40513429437208 C 0.0 **** -0.24
5717 H 39.858624142020204 78.07490309207624 118.42315030524136 H 0.0 **** 0.06
5718 H 40.93383016940996 77.89291504946506 119.8292550289497 H 0.0 **** 0.06
5719 H 39.912396076859494 76.53133873837257 119.30679096024959 H 0.0 **** 0.06
5720 H 39.16959003442116 77.96393037064422 120.05973704320064 H 0.0 **** 0.06
5721 C 128.94039129938847 129.46572437125937 102.45542911525875 C 0.0 **** -0.24
5722 H 129.7663813329772 129.89527282443711 101.88827298227854 H 0.0 **** 0.06
5723 H 128.69687191491565 128.481637383942 102.0540432389966 H 0.0 **** 0.06
5724 H 128.0693083801912 130.11587268997815 102.37659283987588 H 0.0 **** 0.06
5725 H 129.22933759868997 129.3704475040668 103.50192555724358 H 0.0 **** 0.06
5726 C 37.39250095375374 63.60157120423659 62.57002166936685 C 0.0 **** -0.24
5727 H 37.29727171597514 64.53882674060335 63.119181005864434 H 0.0 **** 0.06
5728 H 37.02805915806994 62.78045151747256 63.18791579375721 H 0.0 **** 0.06
5729 H 38.44072547749181 63.43241076255242 62.32174236195897 H 0.0 **** 0.06
5730 H 36.80575321179617 63.65703111714518 61.65404205281047 H 0.0 **** 0.06
5731 C 29.754740033300152 4.8022846510638395 69.0727542126495 C 0.0 **** -0.24
5732 H 30.059829644254876 3.979236721831054 69.71850174083329 H 0.0 **** 0.06
5733 H 29.8049949704957 4.484079408763957 68.03142845344573 H 0.0 **** 0.06
5734 H 30.421441230873512 5.651112043670462 69.22625361326834 H 0.0 **** 0.06
5735 H 28.733677994717198 5.094680921384008 69.31501054080434 H 0.0 **** 0.06
5736 C 30.684467876554123 20.93960651574855 38.23825921789111 C 0.0 **** -0.24
5737 H 30.034235840487213 20.148206603289907 38.609688740174676 H 0.0 **** 0.06
5738 H 30.07728989118803 21.7771438818325 37.89300193238958 H 0.0 **** 0.06
5739 H 31.282913316150115 20.558856542471176 37.41069654608063 H 0.0 **** 0.06
5740 H 31.343432458391277 21.27421903540028 39.03964965291934 H 0.0 **** 0.06
5741 C 53.125307076221645 89.2621747789712 63.218458082607995 C 0.0 **** -0.24
5742 H 52.978525286226755 89.29941590944465 64.29822135025012 H 0.0 **** 0.06
5743 H 52.45043723431313 89.96920646068949 62.73557777617306 H 0.0 **** 0.06
5744 H 52.916059228257865 88.25519964288311 62.85870423211705 H 0.0 **** 0.06
5745 H 54.157037513026324 89.52522433048918 62.984360391202756 H 0.0 **** 0.06
5746 C 91.57141258607979 6.545982757607874 3.094565154516573 C 0.0 **** -0.24
5747 H 91.23224137087485 5.609682944505863 3.5388050323531957 H 0.0 **** 0.06
5748 H 92.45455995408469 6.901281508524221 3.627336307602235 H 0.0 **** 0.06
5749 H 90.77849240916768 7.290790643507165 3.1687562866188443 H 0.0 **** 0.06
5750 H 91.81936203277287 6.381788505014157 2.046503266967534 H 0.0 **** 0.06
5751 C 33.15505801187487 129.8202401939872 125.12936919212075 C 0.0 **** -0.24
5752 H 33.13563383633857 128.77048920980224 124.83519732670578 H 0.0 **** 0.06
5753 H 32.172138235261485 130.11036789313258 125.50243912928408 H 0.0 **** 0.06
5754 H 33.41270865243615 130.43509575299402 124.26705123787923 H 0.0 **** 0.06
5755 H 33.89835348465721 129.96342229054136 125.91351853028385 H 0.0 **** 0.06
5756 C 123.01610477198399 106.33686047251177 14.547551073096002 C 0.0 **** -0.24
5757 H 123.60100797836351 105.4285278247369 14.403341147107596 H 0.0 **** 0.06
5758 H 122.71178794524373 106.41055391631667 15.592042846786512 H 0.0 **** 0.06
5759 H 122.13118843878885 106.30386128705362 13.912948411094646 H 0.0 **** 0.06
5760 H 123.62113237752138 107.20406409641095 14.283695204275233 H 0.0 **** 0.06
5761 C 4.108925988601868 22.761334584795662 2.422107817992867 C 0.0 **** -0.24
5762 H 3.3867996393047974 22.448865992000066 3.1767616538411403 H 0.0 **** 0.06
5763 H 4.971104556193268 23.215625193649316 2.9110277168946936 H 0.0 **** 0.06
5764 H 3.644485533163646 23.486975956434947 1.754948098460602 H 0.0 **** 0.06
5765 H 4.431653991109101 21.893115910145553 1.846987418759909 H 0.0 **** 0.06
5766 C 73.32324455392926 96.94154023345459 80.42526625748445 C 0.0 **** -0.24
5767 H 73.24250164188769 96.95834630340403 81.5119256251844 H 0.0 **** 0.06
5768 H 73.84362824727755 96.03561055384131 80.11391964022658 H 0.0 **** 0.06
5769 H 73.88207039611743 97.81550376475911 80.08884545039461 H 0.0 **** 0.06
5770 H 72.32618086434245 96.95686808663277 79.98643546933317 H 0.0 **** 0.06
5771 C 45.117444230784685 24.920749757817447 89.86128904798265 C 0.0 **** -0.24
5772 H 45.90317577522717 25.670984421443563 89.76874501681364 H 0.0 **** 0.06
5773 H 45.10207062121266 24.534706039268457 90.88070917259495 H 0.0 **** 0.06
5774 H 45.31173600630349 24.104293338646514 89.16656462124404 H 0.0 **** 0.06
5775 H 44.152949177811564 25.37380608033054 89.6297295770309 H 0.0 **** 0.06
5776 C 54.602929120407 105.30849264748849 28.642402498728302 C 0.0 **** -0.24
5777 H 55.648417790014065 105.49623529823134 28.888066168794836 H 0.0 **** 0.06
5778 H 54.147962537509045 104.70526519359038 29.428256515766577 H 0.0 **** 0.06
5779 H 54.54322905625162 104.77517852952968 27.693183622998134 H 0.0 **** 0.06
5780 H 54.073080207422265 106.25749199873104 28.55998992672974 H 0.0 **** 0.06
5781 C 14.683114381485666 80.22475153961783 114.7210845221769 C 0.0 **** -0.24
5782 H 15.176262300752526 79.91750501563448 113.79909311857695 H 0.0 **** 0.06
5783 H 14.651750796536746 79.38329425668873 115.4134185821732 H 0.0 **** 0.06
5784 H 13.667041568363473 80.54929919289035 114.4975105803414 H 0.0 **** 0.06
5785 H 15.237091928181883 81.04720528047767 115.17258218492235 H 0.0 **** 0.06
5786 C 17.95702955561876 7.393614833278178 29.217128947970508 C 0.0 **** -0.24
5787 H 18.727080195605254 6.66008933516494 28.9801695127679 H 0.0 **** 0.06
5788 H 18.111901055881788 8.29030483652059 28.61692953449723 H 0.0 **** 0.06
5789 H 18.01336728369455 7.6500891503336845 30.275067726678003 H 0.0 **** 0.06
5790 H 16.975061472626578 6.973825015655507 28.99703871955016 H 0.0 **** 0.06
5791 C 73.58643828441879 21.477878024242955 112.6963870030247 C 0.0 **** -0.24
5792 H 74.09741545869207 21.182836076319575 113.6127166541235 H 0.0 **** 0.06
5793 H 74.31811167881486 21.831652299829216 111.97075264848345 H 0.0 **** 0.06
5794 H 72.87750043045659 22.27685092185658 112.9174684230065 H 0.0 **** 0.06
5795 H 73.05167012785179 20.620850345326517 112.28733562627205 H 0.0 **** 0.06
5796 C 64.2068346659949 38.406761887667244 58.10619070066733 C 0.0 **** -0.24
5797 H 64.75279016908604 37.70195286791096 58.73360230754369 H 0.0 **** 0.06
5798 H 64.66930302592687 38.449735248939845 57.119710179453165 H 0.0 **** 0.06
5799 H 64.23325674961922 39.39503750105726 58.56465403141627 H 0.0 **** 0.06
5800 H 63.17166213246634 38.07862337926997 58.008530813801144 H 0.0 **** 0.06
5801 C 20.988520376575423 57.030852911851554 55.68702210673811 C 0.0 **** -0.24
5802 H 21.905534810380146 57.3072207454216 55.167269491346616 H 0.0 **** 0.06
5803 H 20.438702368047927 56.30227315542565 55.09008053334375 H 0.0 **** 0.06
5804 H 20.373449140672818 57.91778827459552 55.8361745689746 H 0.0 **** 0.06
5805 H 21.23816168117986 56.59370627614473 56.654473696782446 H 0.0 **** 0.06
5806 C 59.6711160706696 58.012245538468164 100.17128570092186 C 0.0 **** -0.24
5807 H 59.97519680830109 57.53548275496627 101.10399075219073 H 0.0 **** 0.06
5808 H 58.98363237779171 57.35659327384366 99.636732842534 H 0.0 **** 0.06
5809 H 60.55174658375765 58.19647513457852 99.55524846783999 H 0.0 **** 0.06
5810 H 59.17702361800528 58.95798887198504 100.39145292159259 H 0.0 **** 0.06
5811 C 48.263587407374075 11.092194301240497 105.7520184204692 C 0.0 **** -0.24
5812 H 47.434417535321955 11.217850843671123 106.44866485568946 H 0.0 **** 0.06
5813 H 48.01492644398127 11.564560710217574 104.80167365595243 H 0.0 **** 0.06
5814 H 48.445409884901636 10.029072914008054 105.5934340865766 H 0.0 **** 0.06
5815 H 49.15835662955482 11.556432297022436 106.16669370421998 H 0.0 **** 0.06
5816 C 26.84105369693262 94.53214353628128 72.70436231817689 C 0.0 **** -0.24
5817 H 26.182765363752566 93.72751529496384 72.37538301275043 H 0.0 **** 0.06
5818 H 27.536713041901834 94.78174186861425 71.90229604973325 H 0.0 **** 0.06
5819 H 27.39972136497741 94.2079400807368 73.58224728466604 H 0.0 **** 0.06
5820 H 26.245221748709525 95.4097132390511 72.95573691679851 H 0.0 **** 0.06
5821 C 89.23313456119004 73.29801195190952 43.56382114440616 C 0.0 **** -0.24
5822 H 89.92083612663343 72.47301239484041 43.37810427831084 H 0.0 **** 0.06
5823 H 88.32337886329923 72.91547912023047 44.02705402183801 H 0.0 **** 0.06
5824 H 88.98447847923434 73.7818744159065 42.6194728407734 H 0.0 **** 0.06
5825 H 89.70524421257588 74.02076238394395 44.22955966658361 H 0.0 **** 0.06
5826 C 28.053062539135908 79.78295501422099 122.0541076197706 C 0.0 **** -0.24
5827 H 29.00273233539025 79.7733911061776 122.58831005007119 H 0.0 **** 0.06
5828 H 27.48480652768444 80.66994835859816 122.33921030610276 H 0.0 **** 0.06
5829 H 27.48378452701121 78.88897769656876 122.30939488780456 H 0.0 **** 0.06
5830 H 28.24005606769498 79.80037755535687 120.98073056292637 H 0.0 **** 0.06
5831 C 53.636369266699006 117.44708865481337 86.01853370337273 C 0.0 **** -0.24
5832 H 53.76772805459535 116.55593957726902 86.63262057228947 H 0.0 **** 0.06
5833 H 54.60086459104116 117.75043676854258 85.60863458996272 H 0.0 **** 0.06
5834 H 53.23202586601391 118.25357525243822 86.63005740620353 H 0.0 **** 0.06
5835 H 52.947723344707214 117.22851309421978 85.20370619537206 H 0.0 **** 0.06
5836 C 11.797844359406383 16.31566266114592 0.22220621645954886 C 0.0 **** -0.24
5837 H 10.923450213223248 15.759524735589025 0.5600552191198567 H 0.0 **** 0.06
5838 H 11.609281061038814 17.385734915084527 0.32273914548290783 H 0.0 **** 0.06
5839 H 11.997920148555124 16.07890136347089 -0.822958964732944 H 0.0 **** 0.06
5840 H 12.660275566980829 16.04016145075468 0.8289417015965697 H 0.0 **** 0.06
5841 C 14.926219428023263 36.61960388935819 40.82043945272403 C 0.0 **** -0.24
5842 H 14.13377379029722 37.02764810876465 40.19367215026688 H 0.0 **** 0.06
5843 H 14.666299008702353 35.603888533542374 41.120283111016136 H 0.0 **** 0.06
5844 H 15.043314266181952 37.24087608216644 41.708678813557825 H 0.0 **** 0.06
5845 H 15.862411103243268 36.605527211478545 40.26193923741221 H 0.0 **** 0.06
5846 C 113.36755425428963 68.4954352501459 96.10578525253388 C 0.0 **** -0.24
5847 H 113.9545247845874 67.73667387592891 95.58616773582776 H 0.0 **** 0.06
5848 H 113.86931396754404 69.4595747306735 96.0260814365462 H 0.0 **** 0.06
5849 H 113.26969505304707 68.22160877347292 97.15620521518514 H 0.0 **** 0.06
5850 H 112.37795087018115 68.56059949024822 95.65390671331184 H 0.0 **** 0.06
5851 C 24.80557266464382 32.349276743902664 118.0951552252032 C 0.0 **** -0.24
5852 H 24.829683305534786 32.82802282499185 117.11627253038097 H 0.0 **** 0.06
5853 H 24.19166172148516 31.4489179734133 118.0445190771787 H 0.0 **** 0.06
5854 H 24.3809359901461 33.037547451128944 118.8256746122847 H 0.0 **** 0.06
5855 H 25.81932251732394 32.08168792664273 118.39334130233334 H 0.0 **** 0.06
5856 C 105.87295164580095 39.06300911850337 25.0926416273943 C 0.0 **** -0.24
5857 H 105.79375034928543 38.90673842826794 26.16909514278379 H 0.0 **** 0.06
5858 H 106.73617725791871 39.693369240979564 24.880014942883776 H 0.0 **** 0.06
5859 H 104.96817688335065 39.54876092979231 24.728379044154792 H 0.0 **** 0.06
5860 H 105.99446077811501 38.10010760620568 24.59482663067189 H 0.0 **** 0.06
5861 C 51.835980056680796 42.19773223858164 8.200916361835198 C 0.0 **** -0.24
5862 H 52.037834067344704 42.56456406989692 7.194741022733751 H 0.0 **** 0.06
5863 H 51.10980275242758 42.849714479157285 8.686279261325865 H 0.0 **** 0.06
5864 H 52.76129333023914 42.19143724231077 8.77787757877553 H 0.0 **** 0.06
5865 H 51.43595552603068 41.18498497084083 8.144641521356107 H 0.0 **** 0.06
5866 C 51.22274341282903 5.257762352670227 110.95972290558637 C 0.0 **** -0.24
5867 H 50.48866083421589 5.7000192632149265 110.28638194534386 H 0.0 **** 0.06
5868 H 51.57948513151106 6.015697465410483 111.65736550700207 H 0.0 **** 0.06
5869 H 52.061586980084115 4.871976695939793 110.38019087020001 H 0.0 **** 0.06
5870 H 50.75944062348432 4.441883713758273 111.51572301047123 H 0.0 **** 0.06
5871 C 21.36075376524449 103.36929005150118 4.789819892436668 C 0.0 **** -0.24
5872 H 21.78441532051677 102.43497061960277 4.42189117754387 H 0.0 **** 0.06
5873 H 20.592002617106772 103.15220923684898 5.53138651613105 H 0.0 **** 0.06
5874 H 20.919478501028713 103.92016204371453 3.9586925214413213 H 0.0 **** 0.06
5875 H 22.148623505340858 103.9696153927498 5.2460076721858115 H 0.0 **** 0.06
5876 C 109.77332864905229 80.33116562465364 112.29436158538788 C 0.0 **** -0.24
5877 H 108.95916258459067 79.70294433359595 112.65618352733064 H 0.0 **** 0.06
5878 H 110.67434498828077 79.72795887206763 112.18042005843343 H 0.0 **** 0.06
5879 H 109.95966492112373 81.13283643889935 113.00911411475484 H 0.0 **** 0.06
5880 H 109.49952783484828 80.76046709707208 111.33053907259094 H 0.0 **** 0.06
5881 C 9.38540860069618 125.00143894450024 90.3992299470122 C 0.0 **** -0.24
5882 H 8.34003193492515 125.26759323816816 90.55620446357115 H 0.0 **** 0.06
5883 H 9.624965924384355 125.08067127821789 89.33783128732607 H 0.0 **** 0.06
5884 H 9.55373752464864 123.97794335131528 90.7343845673914 H 0.0 **** 0.06
5885 H 10.022648816558444 125.67910218556646 90.9676399441723 H 0.0 **** 0.06
5886 C 59.01612970102167 19.57452006455469 14.705991458578467 C 0.0 **** -0.24
5887 H 58.477241530406104 18.709181956113355 14.319447804357846 H 0.0 **** 0.06
5888 H 58.74261119644541 19.736541112120108 15.74898633975215 H 0.0 **** 0.06
5889 H 58.75539792879334 20.456051451837823 14.120434614529994 H 0.0 **** 0.06
5890 H 60.08871006629937 19.395502038248708 14.634890516374625 H 0.0 **** 0.06
5891 C 20.78497185887346 35.52832014359802 53.75282693567449 C 0.0 **** -0.24
5892 H 21.335129582670234 36.1605218822512 53.05579901964538 H 0.0 **** 0.06
5893 H 20.6951677141314 34.52367516688949 53.338749410229795 H 0.0 **** 0.06
5894 H 19.79157003494059 35.945358339654206 53.914877448780175 H 0.0 **** 0.06
5895 H 21.320019214461723 35.48373846292532 54.701821831735884 H 0.0 **** 0.06
5896 C 41.62673875044578 109.06004153066897 30.238568466797695 C 0.0 **** -0.24
5897 H 41.421426728838185 110.08562836882118 30.54650859140503 H 0.0 **** 0.06
5898 H 41.078650828978226 108.83942199864549 29.32230041046069 H 0.0 **** 0.06
5899 H 41.309969317422 108.37534257298171 31.025755848181717 H 0.0 **** 0.06
5900 H 42.69514110494333 108.94025847374473 30.061334582429467 H 0.0 **** 0.06
5901 C 44.547270366891865 51.164605079488325 20.875028427503167 C 0.0 **** -0.24
5902 H 43.76660793205845 51.49164978064405 20.187871660486934 H 0.0 **** 0.06
5903 H 44.23406380057687 51.36076059335309 21.900972475051248 H 0.0 **** 0.06
5904 H 45.46744123369292 51.709781172803645 20.66470706292202 H 0.0 **** 0.06
5905 H 44.72095998916292 50.096284979096225 20.745149401468126 H 0.0 **** 0.06
5906 C 51.61726911095609 80.71506367169681 30.839992886773018 C 0.0 **** -0.24
5907 H 52.439295212995816 81.17654364478224 30.292509727308698 H 0.0 **** 0.06
5908 H 51.51797257201109 81.19095574264466 31.81560367312352 H 0.0 **** 0.06
5909 H 51.81944803650771 79.65204940555974 30.972060421512026 H 0.0 **** 0.06
5910 H 50.6910463864712 80.84159177757354 30.277930018051563 H 0.0 **** 0.06
5911 C 118.97509713874287 90.23731252193238 114.52573736737416 C 0.0 **** -0.24
5912 H 118.42871269050713 90.0334257869728 113.60554302139981 H 0.0 **** 0.06
5913 H 118.28219170108049 90.5945542172337 115.28824700956962 H 0.0 **** 0.06
5914 H 119.73261788772149 90.99699305219784 114.3375029913099 H 0.0 **** 0.06
5915 H 119.45630944477718 89.32214517264296 114.87203775768218 H 0.0 **** 0.06
5916 C 120.7508540459624 80.74688741321428 61.01403458096246 C 0.0 **** -0.24
5917 H 120.24162026401149 79.79254145599131 61.15428190496533 H 0.0 **** 0.06
5918 H 120.04831282073029 81.56187199622461 61.18467853120012 H 0.0 **** 0.06
5919 H 121.13626827813745 80.80558763502555 59.996133984759695 H 0.0 **** 0.06
5920 H 121.57780839810394 80.82385827280822 61.720870154617444 H 0.0 **** 0.06
5921 C 84.362254554137 53.4362457937233 5.479730084354831 C 0.0 **** -0.24
5922 H 84.9652830647359 53.883577626704394 4.689720399008234 H 0.0 **** 0.06
5923 H 83.65855101080138 54.17619017151803 5.8632248100343105 H 0.0 **** 0.06
5924 H 85.01209098448916 53.10040230303842 6.288214634645563 H 0.0 **** 0.06
5925 H 83.81183466622832 52.58484583703827 5.0789501561154395 H 0.0 **** 0.06
5926 C 58.90055741563569 82.45276701888554 20.635193006770606 C 0.0 **** -0.24
5927 H 59.940155016047896 82.38185100603255 20.95531677571644 H 0.0 **** 0.06
5928 H 58.75784592745205 83.37154790836723 20.065593475199243 H 0.0 **** 0.06
5929 H 58.25199289191178 82.46220986121693 21.51066905414642 H 0.0 **** 0.06
5930 H 58.65413737052435 81.59431226820578 20.01022654340335 H 0.0 **** 0.06
5931 C 95.96854040983735 63.02337153471541 80.63021510426579 C 0.0 **** -0.24
5932 H 96.76919744273931 62.62510711763554 81.25268854588776 H 0.0 **** 0.06
5933 H 96.36964036102086 63.30173200974514 79.6551090556654 H 0.0 **** 0.06
5934 H 95.53877074040335 63.90274959986145 81.11048456090535 H 0.0 **** 0.06
5935 H 95.19674635364382 62.264866150629985 80.50242252455908 H 0.0 **** 0.06
5936 C 83.75530154849132 65.71527914731844 64.96358804784654 C 0.0 **** -0.24
5937 H 84.3633151566459 64.86148722135735 64.66514165862668 H 0.0 **** 0.06
5938 H 82.94551315981656 65.37562070459066 65.61046938178345 H 0.0 **** 0.06
5939 H 83.33631122380416 66.1898564563622 64.0760752451439 H 0.0 **** 0.06
5940 H 84.37450645023175 66.43264845374956 65.50211384500187 H 0.0 **** 0.06
5941 C 93.39719714268585 28.74512927135956 28.695501711796 C 0.0 **** -0.24
5942 H 93.48988483744583 27.847381000929715 28.08573667004279 H 0.0 **** 0.06
5943 H 92.52794335558337 28.654178948126543 29.34637291923528 H 0.0 **** 0.06
5944 H 93.27780350428503 29.613133333517283 28.047497430581444 H 0.0 **** 0.06
5945 H 94.29495584790854 28.86607612005497 29.303236637132215 H 0.0 **** 0.06
5946 C 38.262233305065365 60.86692409546255 66.04048425052865 C 0.0 **** -0.24
5947 H 37.353770445621194 61.41325085960548 66.29220774115149 H 0.0 **** 0.06
5948 H 38.82346608784903 60.65625363535307 66.95102266792333 H 0.0 **** 0.06
5949 H 38.873568417303545 61.46988143696548 65.36713186182267 H 0.0 **** 0.06
5950 H 37.99873370994504 59.92933109136678 65.55031302572395 H 0.0 **** 0.06
5951 C 12.353135710836824 48.098662792081214 124.14547894197842 C 0.0 **** -0.24
5952 H 12.0063919813513 49.081711852388096 123.82568550162192 H 0.0 **** 0.06
5953 H 11.50915009425755 47.41016068644282 124.18278281341003 H 0.0 **** 0.06
5954 H 12.803860733211039 48.17599390788911 125.13438099177162 H 0.0 **** 0.06
5955 H 13.093819366718634 47.727737037143854 123.4363038343835 H 0.0 **** 0.06
5956 C 33.4251956380763 97.92893457321364 130.78332231201557 C 0.0 **** -0.24
5957 H 33.32695241047173 97.34089186949528 131.6959857402064 H 0.0 **** 0.06
5958 H 34.472510977194275 98.18872233395818 130.62940880888763 H 0.0 **** 0.06
5959 H 32.8338482853309 98.84042869615571 130.87250898318973 H 0.0 **** 0.06
5960 H 33.06612964616488 97.34530316023091 129.93560333658593 H 0.0 **** 0.06
5961 C 96.08816251927614 114.80998407904734 45.62623172495148 C 0.0 **** -0.24
5962 H 96.96361755525791 115.34858236411405 45.990117535098705 H 0.0 **** 0.06
5963 H 96.19485085867855 114.62358417962072 44.55762087772678 H 0.0 **** 0.06
5964 H 95.19410390193967 115.40663375311068 45.80353302264871 H 0.0 **** 0.06
5965 H 96.00202741218095 113.86004261627907 46.15359537567758 H 0.0 **** 0.06
5966 C 101.9210086824775 38.253053571200894 1.6712109520540537 C 0.0 **** -0.24
5967 H 102.91089636322 37.7978739840471 1.6336155574468876 H 0.0 **** 0.06
5968 H 101.9378141471383 39.10161495740056 2.3554920686619027 H 0.0 **** 0.06
5969 H 101.19572329388883 37.51783400768869 2.0197920298352017 H 0.0 **** 0.06
5970 H 101.64121906707746 38.59570572896399 0.6742952988477668 H 0.0 **** 0.06
5971 C 128.0959446579174 91.66953354243948 5.914085469038639 C 0.0 **** -0.24
5972 H 127.8294391428453 92.03092074950177 6.906383037674175 H 0.0 **** 0.06
5973 H 127.21152520581268 91.67456643242598 5.275759172490893 H 0.0 **** 0.06
5974 H 128.48447133346983 90.65439663030867 5.98952742178227 H 0.0 **** 0.06
5975 H 128.85837627169312 92.31857159006576 5.483295359613351 H 0.0 **** 0.06
5976 C 69.64420310038102 21.765461553790345 23.75024638064187 C 0.0 **** -0.24
5977 H 68.68041948772087 21.57911486857452 23.27688340501544 H 0.0 **** 0.06
5978 H 69.50669104256495 22.42989731457962 24.604000495887846 H 0.0 **** 0.06
5979 H 70.31857910698805 22.23034526862415 23.03201763747205 H 0.0 **** 0.06
5980 H 70.06994760601583 20.821359997105844 24.089615378837834 H 0.0 **** 0.06
5981 C 56.434213212675246 94.2058191516001 68.98808853790294 C 0.0 **** -0.24
5982 H 57.120120773997 94.92718567579918 69.43146150332686 H 0.0 **** 0.06
5983 H 55.955693636709924 93.62634870087854 69.77856217216348 H 0.0 **** 0.06
5984 H 56.986239489551906 93.53641493543057 68.32945709900349 H 0.0 **** 0.06
5985 H 55.67266557388544 94.73396496427232 68.41307919550451 H 0.0 **** 0.06
5986 C 79.56205151181055 4.627252431596755 50.34231916076973 C 0.0 **** -0.24
5987 H 80.14802986070231 4.0847120996174695 49.601252520577134 H 0.0 **** 0.06
5988 H 79.26884778717181 3.9454156678357677 51.14200835045426 H 0.0 **** 0.06
5989 H 78.66977804687255 5.039767309999782 49.870561753023 H 0.0 **** 0.06
5990 H 80.16129742659402 5.437268531443586 50.75780527023264 H 0.0 **** 0.06
5991 C 41.308789783335015 35.19877619868612 49.79602608079193 C 0.0 **** -0.24
5992 H 41.559725042402306 35.86413536601239 48.96917832359915 H 0.0 **** 0.06
5993 H 40.24240932904135 34.97519578032913 49.770355538051575 H 0.0 **** 0.06
5994 H 41.55585524145755 35.68412967483991 50.74002084333303 H 0.0 **** 0.06
5995 H 41.8771278675047 34.27358203243247 49.70248985109882 H 0.0 **** 0.06
5996 C 79.58871931651265 46.841103425494 110.01396815348886 C 0.0 **** -0.24
5997 H 80.36228609613433 46.16485452320612 110.37993866595161 H 0.0 **** 0.06
5998 H 78.79398579217118 46.91765714381657 110.75592880985567 H 0.0 **** 0.06
5999 H 79.17930438362617 46.45387352587454 109.08092802099526 H 0.0 **** 0.06
6000 H 80.02125058614656 47.82620046271086 109.84044014354455 H 0.0 **** 0.06
6001 C 106.25428815684168 81.15324269898338 14.399970795275408 C 0.0 **** -0.24
6002 H 106.27809801447353 80.06311412842473 14.400525105226592 H 0.0 **** 0.06
6003 H 105.45876743496481 81.49964424652768 15.060780372753527 H 0.0 **** 0.06
6004 H 106.06853027720061 81.51166189731595 13.387430344725544 H 0.0 **** 0.06
6005 H 107.21209560386043 81.53726926152882 14.751641078381525 H 0.0 **** 0.06
6006 C 102.10882765392208 56.12809824922169 80.10573986889938 C 0.0 **** -0.24
6007 H 102.1885762837264 55.09500882725605 79.76720053625121 H 0.0 **** 0.06
6008 H 102.38766968677444 56.79853851415355 79.29245365009706 H 0.0 **** 0.06
6009 H 102.7771596164936 56.28552352621078 80.95227760471846 H 0.0 **** 0.06
6010 H 101.08228777837923 56.333359147326064 80.40933880910961 H 0.0 **** 0.06
6011 C 76.14336248534352 11.132077601811545 43.31678224934021 C 0.0 **** -0.24
6012 H 75.90719459875075 11.323802165312202 42.26994754071032 H 0.0 **** 0.06
6013 H 77.21452839896305 11.258514051096824 43.476688243596385 H 0.0 **** 0.06
6014 H 75.85628639303141 10.112494762693984 43.572754096264276 H 0.0 **** 0.06
6015 H 75.5966164124531 11.832518755690614 43.946929303009824 H 0.0 **** 0.06
6016 C 12.328205006513677 57.20548396645715 98.43264963688503 C 0.0 **** -0.24
6017 H 12.848716670877497 58.01963614718683 97.9279593109207 H 0.0 **** 0.06
6018 H 12.592649375697164 56.25854322691106 97.96312346724346 H 0.0 **** 0.06
6019 H 11.252015705667919 57.36113643819054 98.35627965372274 H 0.0 **** 0.06
6020 H 12.619378106134032 57.18506887234315 99.483234695697 H 0.0 **** 0.06
6021 C 54.38715452023227 122.688305136313 37.55196771803787 C 0.0 **** -0.24
6022 H 53.9253223909072 123.3696485022135 38.267341632475905 H 0.0 **** 0.06
6023 H 53.99256401613195 121.68267427013414 37.70190917876232 H 0.0 **** 0.06
6024 H 55.46619610209139 122.68148693763256 37.70209826150548 H 0.0 **** 0.06
6025 H 54.16277432711669 123.01922857011152 36.538214469569496 H 0.0 **** 0.06
6026 C 78.17337933102058 82.10167945026694 25.44592195190137 C 0.0 **** -0.24
6027 H 78.81822267344228 82.85272443292422 24.98976412824652 H 0.0 **** 0.06
6028 H 78.50454662296053 81.90907596276483 26.46628442675626 H 0.0 **** 0.06
6029 H 78.22336726373064 81.18011236448766 24.866256733415412 H 0.0 **** 0.06
6030 H 77.14623077201125 82.4669276019388 25.459601295819198 H 0.0 **** 0.06
6031 C 25.136312009688375 23.020259269064212 61.782088793772346 C 0.0 **** -0.24
6032 H 25.41658403241515 22.150475801659937 61.1875126334736 H 0.0 **** 0.06
6033 H 25.814321246360002 23.113857849338515 62.63050099267605 H 0.0 **** 0.06
6034 H 24.114624026638268 22.897225652037974 62.14364232183334 H 0.0 **** 0.06
6035 H 25.198138887238734 23.916938087779286 61.16646558700211 H 0.0 **** 0.06
6036 C 129.36721564463826 1.3803648477602337 83.5264943889743 C 0.0 **** -0.24
6037 H 129.81821451283022 1.0675456889417205 84.46841513139708 H 0.0 **** 0.06
6038 H 128.28834883572173 1.465871597309956 83.65045563997552 H 0.0 **** 0.06
6039 H 129.58748508511823 0.641391640763004 82.75516791901441 H 0.0 **** 0.06
6040 H 129.77688255406818 2.3463917689279015 83.23065236017311 H 0.0 **** 0.06
6041 C 87.13615541291517 71.27968021879559 49.77319421596849 C 0.0 **** -0.24
6042 H 88.15499736182417 71.62250230939435 49.59121180061271 H 0.0 **** 0.06
6043 H 86.43210950941688 72.05468554268515 49.467508632472175 H 0.0 **** 0.06
6044 H 87.00765264524185 71.06888636941028 50.834584543561334 H 0.0 **** 0.06
6045 H 86.95107649888516 70.37240995933934 49.1979004164624 H 0.0 **** 0.06
6046 C 101.18985255722757 29.453130953733762 116.39409703647931 C 0.0 **** -0.24
6047 H 101.24483535997922 30.101416627728867 115.51927243997613 H 0.0 **** 0.06
6048 H 102.14941601155547 29.460280948122545 116.91111475895735 H 0.0 **** 0.06
6049 H 100.95375629891598 28.43692824425989 116.0787209644709 H 0.0 **** 0.06
6050 H 100.412342622565 29.815235754370462 117.066708277413 H 0.0 **** 0.06
6051 C 101.32864967412291 15.657873167391976 33.819291834001945 C 0.0 **** -0.24
6052 H 101.34304090627302 15.402285805680716 32.75920951173396 H 0.0 **** 0.06
6053 H 101.90622803091497 14.920874761196071 34.37770663321919 H 0.0 **** 0.06
6054 H 100.3000321404657 15.661447985401182 34.17786341400097 H 0.0 **** 0.06
6055 H 101.76592107544477 16.645923351283813 33.95980152916644 H 0.0 **** 0.06
6056 C 124.68196473845819 104.42938698774233 115.1898105573349 C 0.0 **** -0.24
6057 H 123.86623697152689 103.73434210518985 115.38487773630727 H 0.0 **** 0.06
6058 H 125.32862523278297 104.48686666568278 116.06549701516784 H 0.0 **** 0.06
6059 H 124.27387024805682 105.41653763866572 114.97295128225632 H 0.0 **** 0.06
6060 H 125.25934000270249 104.08011493312873 114.3334961669802 H 0.0 **** 0.06
6061 C 94.28240131799714 121.11626829561703 120.95866828886926 C 0.0 **** -0.24
6062 H 94.97821272560299 121.50795212243766 120.216197565308 H 0.0 **** 0.06
6063 H 93.57969016666982 121.89822389212395 121.24541367722139 H 0.0 **** 0.06
6064 H 94.83792391670187 120.7854894098272 121.83642990919827 H 0.0 **** 0.06
6065 H 93.7365493307395 120.27266605002751 120.535752990236 H 0.0 **** 0.06
6066 C 107.9967059527098 16.091910068138702 121.42113102401566 C 0.0 **** -0.24
6067 H 107.0998329347243 16.698472756546778 121.29001259661254 H 0.0 **** 0.06
6068 H 107.92886844307874 15.543525487329191 122.36115226944793 H 0.0 **** 0.06
6069 H 108.8736865317811 16.738657807573418 121.43975557688901 H 0.0 **** 0.06
6070 H 108.08140249408832 15.38752200846102 120.5943176455591 H 0.0 **** 0.06
6071 C 102.7786291564492 6.882145929614779 19.142788216826858 C 0.0 **** -0.24
6072 H 102.76187129135943 7.580464937226793 18.30567577518815 H 0.0 **** 0.06
6073 H 102.61446336815618 5.8699931626731825 18.774189799419048 H 0.0 **** 0.06
6074 H 101.9914402146068 7.145141353282071 19.849294720703142 H 0.0 **** 0.06
6075 H 103.74697052191792 6.936275864600205 19.640937247657348 H 0.0 **** 0.06
6076 C 115.09756176200197 68.72548120640573 58.532348143741956 C 0.0 **** -0.24
6077 H 114.08465952897693 69.10975838344774 58.650634072052924 H 0.0 **** 0.06
6078 H 115.7907695759133 69.35066659132707 59.09572161575255 H 0.0 **** 0.06
6079 H 115.37011419262983 68.73919171061118 57.477296184552586 H 0.0 **** 0.06
6080 H 115.14406979810117 67.70237253372278 58.9065114255169 H 0.0 **** 0.06
6081 C 127.30794636330856 42.103464936474296 9.478622733547184 C 0.0 **** -0.24
6082 H 126.2805297062616 42.11051209010563 9.113894271023497 H 0.0 **** 0.06
6083 H 127.39735419802196 42.784792308062066 10.324905628247109 H 0.0 **** 0.06
6084 H 127.97784905068778 42.423604176787165 8.680346623206503 H 0.0 **** 0.06
6085 H 127.57402925817402 41.094899069385775 9.794393588533268 H 0.0 **** 0.06
6086 C 15.828965429722842 25.326920143284156 65.56451369664924 C 0.0 **** -0.24
6087 H 15.842495517361982 24.55588065686635 66.33493145592888 H 0.0 **** 0.06
6088 H 15.048288519799073 25.10238341710516 64.83873052763406 H 0.0 **** 0.06
6089 H 16.79575519741573 25.355686904002425 65.06294871495246 H 0.0 **** 0.06
6090 H 15.629338113431231 26.295449621402668 66.02476704591376 H 0.0 **** 0.06
6091 C 15.851505343220822 109.1746332330568 63.926800220585164 C 0.0 **** -0.24
6092 H 16.495546470957834 108.56562321655673 64.56285164541116 H 0.0 **** 0.06
6093 H 14.930515806175151 108.62967389778697 63.715581942384205 H 0.0 **** 0.06
6094 H 16.367327470200905 109.39263054274076 62.99238644776244 H 0.0 **** 0.06
6095 H 15.614108926326935 110.1072298362929 64.43823150777774 H 0.0 **** 0.06
6096 C 113.79092533494361 92.09113781663234 96.45385528300127 C 0.0 **** -0.24
6097 H 114.58507532069711 91.7338988659115 97.10974370581607 H 0.0 **** 0.06
6098 H 113.0885329782194 92.69274841355319 97.0306889959047 H 0.0 **** 0.06
6099 H 113.26896450880832 91.23841667504848 96.0196410257255 H 0.0 **** 0.06
6100 H 114.22263620485415 92.6971669770954 95.65786608513775 H 0.0 **** 0.06
6101 C 69.33984871480408 57.11483439272115 100.67709987770792 C 0.0 **** -0.24
6102 H 70.00498077129669 57.514478452971105 99.9119930820734 H 0.0 **** 0.06
6103 H 68.30484487766728 57.22730119148781 100.35320207826022 H 0.0 **** 0.06
6104 H 69.48987916944381 57.65938849769651 101.60954622017356 H 0.0 **** 0.06
6105 H 69.55893661864081 56.059354633175815 100.83349152493761 H 0.0 **** 0.06
6106 C 8.612490986748071 1.2940534603166753 60.93184764653519 C 0.0 **** -0.24
6107 H 7.86455697400179 1.1915730693787836 60.14606338198706 H 0.0 **** 0.06
6108 H 8.167757016345348 1.0352897362417686 61.8928442694325 H 0.0 **** 0.06
6109 H 8.969405481919082 2.3240487808030146 60.96112580152861 H 0.0 **** 0.06
6110 H 9.448938053248625 0.6256048041413607 60.72670332228405 H 0.0 **** 0.06
6111 C 31.035915775700282 89.4962663635086 106.70065755499184 C 0.0 **** -0.24
6112 H 32.02129704159597 89.95242679177711 106.60377663174452 H 0.0 **** 0.06
6113 H 30.290243355572123 90.27471824569012 106.86294369910331 H 0.0 **** 0.06
6114 H 31.035502424446584 88.80963699737755 107.54835474228645 H 0.0 **** 0.06
6115 H 30.79733193848022 88.94831593230839 105.78989882396291 H 0.0 **** 0.06
6116 C 56.12713189487549 86.48389335267186 92.6561445601586 C 0.0 **** -0.24
6117 H 55.129305235383484 86.67369655759529 93.05381812876814 H 0.0 **** 0.06
6118 H 56.065457910821806 85.74378315583166 91.85893841991802 H 0.0 **** 0.06
6119 H 56.76907714212382 86.10821887248264 93.45279846356425 H 0.0 **** 0.06
6120 H 56.54230137803495 87.41059369476898 92.26181454128707 H 0.0 **** 0.06
6121 C 126.86358780732103 30.37576291256687 3.6392445732615215 C 0.0 **** -0.24
6122 H 126.38674054604004 29.925154750106316 2.7693524021686926 H 0.0 **** 0.06
6123 H 127.94674559957967 30.345247552988866 3.5151254308375997 H 0.0 **** 0.06
6124 H 126.58527867754249 29.819526448709468 4.534619645133489 H 0.0 **** 0.06
6125 H 126.53764955912075 31.410762602226782 3.7382967005556793 H 0.0 **** 0.06
6126 C 69.9607906174065 29.467233243056853 120.21890609149341 C 0.0 **** -0.24
6127 H 69.30749149782135 29.879850704772622 119.45059201592463 H 0.0 **** 0.06
6128 H 70.4183473760597 28.548035527535575 119.85172643785306 H 0.0 **** 0.06
6129 H 69.37698559701734 29.249299843214146 121.11377885228603 H 0.0 **** 0.06
6130 H 70.74007820394435 30.19025417613227 120.46036638095111 H 0.0 **** 0.06
6131 C 78.05517396542723 89.88065665593942 120.82930969474171 C 0.0 **** -0.24
6132 H 77.81220110342063 89.2927722065716 119.94443766646029 H 0.0 **** 0.06
6133 H 77.63835439012415 90.88290065434522 120.72485426337161 H 0.0 **** 0.06
6134 H 79.13799203734469 89.94677681814979 120.93506703054733 H 0.0 **** 0.06
6135 H 77.63249826100733 89.40097596483052 121.71239076682164 H 0.0 **** 0.06
6136 C 114.0647446005382 97.12066522334648 52.164903666089174 C 0.0 **** -0.24
6137 H 113.45258922910077 96.31440847528971 52.56927767399978 H 0.0 **** 0.06
6138 H 113.50353888158023 97.65251499336318 51.39607632652897 H 0.0 **** 0.06
6139 H 114.97294294634955 96.70409541605689 51.72928246483977 H 0.0 **** 0.06
6140 H 114.32930789385736 97.81184758918475 52.96575179499706 H 0.0 **** 0.06
6141 C 120.19392513839297 78.30979124826578 77.10658185497915 C 0.0 **** -0.24
6142 H 119.63290485104554 78.5267781052065 76.19717905531279 H 0.0 **** 0.06
6143 H 119.5395002643906 78.41713020577131 77.97125801754429 H 0.0 **** 0.06
6144 H 121.02848459265867 79.00580858209597 77.19289450441563 H 0.0 **** 0.06
6145 H 120.57488501190849 77.28968788205496 77.06277384272329 H 0.0 **** 0.06
6146 C 109.80107110551747 97.09262956418004 26.953017602846728 C 0.0 **** -0.24
6147 H 110.7680211549549 97.04656801222205 26.45232469449894 H 0.0 **** 0.06
6148 H 109.13295588490249 97.74833861510359 26.393964648958672 H 0.0 **** 0.06
6149 H 109.9330237759763 97.4836000866142 27.962105327861252 H 0.0 **** 0.06
6150 H 109.37024390464843 96.0930648179987 27.00461868598171 H 0.0 **** 0.06
6151 C 47.74201773483696 129.57715863667133 96.14175745492662 C 0.0 **** -0.24
6152 H 47.22971995916859 129.41074552694684 97.08884989022607 H 0.0 **** 0.06
6153 H 48.80661986469187 129.72094417955967 96.32654516498019 H 0.0 **** 0.06
6154 H 47.33315521618874 130.4639235001106 95.65817401158083 H 0.0 **** 0.06
6155 H 47.59934653753439 128.71163401501875 95.49503610229726 H 0.0 **** 0.06
6156 C 108.73337521863783 70.22668191219636 101.27192114048435 C 0.0 **** -0.24
6157 H 109.5415418810735 69.96136598132165 101.95321736765067 H 0.0 **** 0.06
6158 H 109.07783892311267 70.99811927572873 100.58231858222766 H 0.0 **** 0.06
6159 H 107.88458410201328 70.6016531859148 101.84389024738326 H 0.0 **** 0.06
6160 H 108.43022522432018 69.34436117973742 100.70812801879774 H 0.0 **** 0.06
6161 C 127.60487080023024 52.91039709533092 3.1654796163357446 C 0.0 **** -0.24
6162 H 127.10695419116689 52.06953029148471 2.6821137432743853 H 0.0 **** 0.06
6163 H 128.1580976363981 52.553875952485384 4.033813745579664 H 0.0 **** 0.06
6164 H 126.85931954598966 53.6401154910792 3.4826544994251663 H 0.0 **** 0.06
6165 H 128.2929949071592 53.377655982405 2.4615060531742188 H 0.0 **** 0.06
6166 C 59.53089845523148 39.07315496260076 95.99298815481939 C 0.0 **** -0.24
6167 H 59.949329070810094 39.45660004224322 96.92338653244116 H 0.0 **** 0.06
6168 H 59.22083553377924 39.90796048188511 95.36291569292797 H 0.0 **** 0.06
6169 H 58.66928422179663 38.444386944726915 96.21399737758168 H 0.0 **** 0.06
6170 H 60.285339873317284 38.485161553280825 95.47048900945242 H 0.0 **** 0.06
6171 C 57.471112386565835 13.836930021051757 66.19026883537053 C 0.0 **** -0.24
6172 H 56.55977837369848 14.34386764400358 66.506283063978 H 0.0 **** 0.06
6173 H 57.814191235972785 13.176519839420791 66.98602426705466 H 0.0 **** 0.06
6174 H 58.24155228636681 14.578133214415232 65.97360837002023 H 0.0 **** 0.06
6175 H 57.26864953986558 13.251793203169086 65.29288028955239 H 0.0 **** 0.06
6176 C 24.225218960036443 18.060161499462467 71.58198260428752 C 0.0 **** -0.24
6177 H 23.43046272022397 17.91062425079592 72.3133598294282 H 0.0 **** 0.06
6178 H 25.14771875974364 17.611199608120558 71.95016572575904 H 0.0 **** 0.06
6179 H 24.37709781754225 19.12788592410135 71.42547124008404 H 0.0 **** 0.06
6180 H 23.942632301620876 17.591332255503644 70.63869502067506 H 0.0 **** 0.06
6181 C 32.31890580257374 73.48718066928686 64.17788690817515 C 0.0 **** -0.24
6182 H 32.59137370256721 72.4364398270896 64.07844144447537 H 0.0 **** 0.06
6183 H 32.76728758215867 73.89383627936246 65.08551104918229 H 0.0 **** 0.06
6184 H 31.23490346900499 73.57713451267725 64.23626181934817 H 0.0 **** 0.06
6185 H 32.683622626779865 74.0405420082395 63.312733560609274 H 0.0 **** 0.06
6186 C 26.378654146930586 42.1890829732168 39.48465300744809 C 0.0 **** -0.24
6187 H 27.413243493401808 42.23403266616535 39.14365313789145 H 0.0 **** 0.06
6188 H 25.73664524627634 41.882550146838526 38.658318501437265 H 0.0 **** 0.06
6189 H 26.07053158812971 43.17253880692992 39.83985800789536 H 0.0 **** 0.06
6190 H 26.295804920636016 41.466571819104885 40.296851340808956 H 0.0 **** 0.06
6191 C 120.56456500949491 123.13687721653521 56.526194606627385 C 0.0 **** -0.24
6192 H 120.22292949249675 122.31353975647508 57.154029065455376 H 0.0 **** 0.06
6193 H 121.4205272077017 122.81034677949961 55.93546449300402 H 0.0 **** 0.06
6194 H 120.85651475004943 123.97686420856834 57.156422871742066 H 0.0 **** 0.06
6195 H 119.75813848029236 123.44427145564791 55.86053366127237 H 0.0 **** 0.06
6196 C 80.25033945725619 39.191137994406176 89.66465124269737 C 0.0 **** -0.24
6197 H 81.10636619219218 38.74967505187655 89.15588402646992 H 0.0 **** 0.06
6198 H 79.96218519085488 40.11267282083725 89.15764313625044 H 0.0 **** 0.06
6199 H 80.51646397844712 39.41366843858225 90.69821809504006 H 0.0 **** 0.06
6200 H 79.41653876742703 38.48992077434801 89.64788104058316 H 0.0 **** 0.06
6201 C 67.20559702470104 59.26369158277379 40.91645576406103 C 0.0 **** -0.24
6202 H 67.13814192168715 58.77912382104968 41.8896932869847 H 0.0 **** 0.06
6203 H 67.95773134399599 58.75844094858897 40.31043411419728 H 0.0 **** 0.06
6204 H 67.48837743419934 60.30793087737024 41.050649737090154 H 0.0 **** 0.06
6205 H 66.2389921926467 59.21000055636577 40.41590424543946 H 0.0 **** 0.06
6206 C 111.65153713653484 116.67037816920552 103.59910764700058 C 0.0 **** -0.24
6207 H 112.62107326301465 116.22572215436148 103.82336016606128 H 0.0 **** 0.06
6208 H 111.7566072877173 117.75343786783412 103.52785120881252 H 0.0 **** 0.06
6209 H 110.94687391021264 116.42404698129766 104.39383979911415 H 0.0 **** 0.06
6210 H 111.28232968527976 116.27709799673272 102.65135657430285 H 0.0 **** 0.06
6211 C 58.18783014165831 14.966705231043989 72.13086061921479 C 0.0 **** -0.24
6212 H 57.89895739154505 14.066930726442479 71.586730210524 H 0.0 **** 0.06
6213 H 59.124836872961694 15.350114871680773 71.72670605090465 H 0.0 **** 0.06
6214 H 58.31892312027537 14.725323859427363 73.18628906562466 H 0.0 **** 0.06
6215 H 57.40954580968021 15.721337442378456 72.02436129358398 H 0.0 **** 0.06
6216 C 39.92842213093488 93.6991810520795 70.33806063396155 C 0.0 **** -0.24
6217 H 40.64059762150379 94.20197663103215 69.68452326666302 H 0.0 **** 0.06
6218 H 39.90291392589549 92.6360520889246 70.09729591210044 H 0.0 **** 0.06
6219 H 38.937280854534436 94.12841604974352 70.19485553209485 H 0.0 **** 0.06
6220 H 40.234572598973415 93.82932953596554 71.37610385955257 H 0.0 **** 0.06
6221 C 10.529222777929107 103.07541688733741 130.38532537226675 C 0.0 **** -0.24
6222 H 9.540345834480974 103.46301999311135 130.14259582556852 H 0.0 **** 0.06
6223 H 10.435022240408955 102.27008843587294 131.11327164131316 H 0.0 **** 0.06
6224 H 11.139101729931127 103.87556603991746 130.8054438080434 H 0.0 **** 0.06
6225 H 11.003216419229204 102.69505387384254 129.48033836168017 H 0.0 **** 0.06
6226 C 61.61699523859147 70.93618809971524 54.81043588666279 C 0.0 **** -0.24
6227 H 60.56942716076742 71.05630185842419 54.53545726958552 H 0.0 **** 0.06
6228 H 62.078567102005735 71.9173091443545 54.920332925624976 H 0.0 **** 0.06
6229 H 62.13495021287048 70.37583652280661 54.03224490076053 H 0.0 **** 0.06
6230 H 61.68432507380456 70.39443260957391 55.754564704716955 H 0.0 **** 0.06
6231 C 114.2950423143172 92.82485857760975 70.09218940646595 C 0.0 **** -0.24
6232 H 115.13588440619817 92.1683854421784 69.868884561462 H 0.0 **** 0.06
6233 H 113.44248165083407 92.54592107086596 69.4737085250295 H 0.0 **** 0.06
6234 H 114.57461654225655 93.85778237783718 69.88187247388966 H 0.0 **** 0.06
6235 H 114.02840603288134 92.72760807319705 71.14495858615963 H 0.0 **** 0.06
6236 C 6.1756567877914215 35.892335069645284 73.92210381406767 C 0.0 **** -0.24
6237 H 5.278694209170471 36.4402063862112 73.63429208524931 H 0.0 **** 0.06
6238 H 6.542841247965207 36.27301758903843 74.87591980258475 H 0.0 **** 0.06
6239 H 6.942402386430171 36.0236372665164 73.1580479028398 H 0.0 **** 0.06
6240 H 5.9386893075999225 34.83247903681533 74.02015546559699 H 0.0 **** 0.06
6241 C 28.46230596759233 101.5360966497154 82.83996160953401 C 0.0 **** -0.24
6242 H 28.592240904597617 101.79499554575054 81.7896941768002 H 0.0 **** 0.06
6243 H 27.45177941659051 101.16030055498865 82.99893276955387 H 0.0 **** 0.06
6244 H 28.622448671664273 102.42264263977896 83.45471934369988 H 0.0 **** 0.06
6245 H 29.184731872866962 100.76747902571586 83.1163314383287 H 0.0 **** 0.06
6246 C 84.59804059229262 34.866136610533374 127.40937555494338 C 0.0 **** -0.24
6247 H 84.05174909660889 33.92863086397591 127.30303140707123 H 0.0 **** 0.06
6248 H 83.92441824748923 35.70265546441459 127.2240067291261 H 0.0 **** 0.06
6249 H 85.41789600046425 34.892817575115885 126.6913444103885 H 0.0 **** 0.06
6250 H 84.99891395287142 34.93903611248055 128.42065529591673 H 0.0 **** 0.06
6251 C 98.65584384069139 58.9310242785441 35.297424779095955 C 0.0 **** -0.24
6252 H 98.57180100474329 58.71335162856178 34.232270828298034 H 0.0 **** 0.06
6253 H 99.4785531544894 59.626495905929744 35.46169601016157 H 0.0 **** 0.06
6254 H 98.84608604001887 58.00611044678436 35.84204279958407 H 0.0 **** 0.06
6255 H 97.72616568812954 59.376053286047124 35.65144054302994 H 0.0 **** 0.06
6256 C 96.90321515750065 31.148424924742642 16.565845101630316 C 0.0 **** -0.24
6257 H 97.58898095712541 30.70491670844467 17.2868548994619 H 0.0 **** 0.06
6258 H 96.1185752321723 31.689439790924553 17.094634818527993 H 0.0 **** 0.06
6259 H 96.45672740189838 30.362784515786075 15.957396888374774 H 0.0 **** 0.06
6260 H 97.45009964949753 31.839466897390025 15.923002264763795 H 0.0 **** 0.06
6261 C 90.37926552247772 123.13126031954573 57.54184587272999 C 0.0 **** -0.24
6262 H 90.93231794823782 123.54558378674244 58.384571526190854 H 0.0 **** 0.06
6263 H 90.82570062494192 123.47615417667836 56.609073977574866 H 0.0 **** 0.06
6264 H 89.34081768404992 123.46158296889723 57.59229001774784 H 0.0 **** 0.06
6265 H 90.41664879637362 122.04280176841223 57.58297892252597 H 0.0 **** 0.06
6266 C 37.65482828400977 107.8489615068514 89.98968669442758 C 0.0 **** -0.24
6267 H 37.797595067721176 107.02135827473242 90.68496939971638 H 0.0 **** 0.06
6268 H 36.60487874554957 108.14340145673496 89.98692845878466 H 0.0 **** 0.06
6269 H 37.94832120401966 107.53522755292224 88.9878461931286 H 0.0 **** 0.06
6270 H 38.268967080665846 108.6943772428403 90.30061637727366 H 0.0 **** 0.06
6271 C 64.25642830012328 118.43549219867654 83.93787154714278 C 0.0 **** -0.24
6272 H 64.07687412350865 118.54107274940358 85.00759089881618 H 0.0 **** 0.06
6273 H 63.41220781753265 117.92242724162139 83.47628336824152 H 0.0 **** 0.06
6274 H 65.16576518839491 117.85756583880942 83.77704884805169 H 0.0 **** 0.06
6275 H 64.369852625182 119.42280241718237 83.4899586827581 H 0.0 **** 0.06
6276 C 25.247288272890046 3.0843051383293982 22.865973832433397 C 0.0 **** -0.24
6277 H 25.761925521140483 3.038460880077537 21.906166413790658 H 0.0 **** 0.06
6278 H 24.58023872963338 2.2278374578399394 22.960944647440293 H 0.0 **** 0.06
6279 H 24.665938608972283 4.005126771985658 22.922157541469097 H 0.0 **** 0.06
6280 H 25.979337883635537 3.066758552619717 23.67214865442243 H 0.0 **** 0.06
6281 C 74.12058084484988 1.5717850950538832 74.1505334059601 C 0.0 **** -0.24
6282 H 74.85542160719905 1.602369376029742 73.3460626947284 H 0.0 **** 0.06
6283 H 73.36833185344159 2.3440875082004027 73.98486204186149 H 0.0 **** 0.06
6284 H 74.618231356737 1.7476500424391475 75.10402957146907 H 0.0 **** 0.06
6285 H 73.63930179767817 0.5935987593582581 74.16528041378834 H 0.0 **** 0.06
6286 C 52.81726426209627 45.07846985466915 45.518576749936194 C 0.0 **** -0.24
6287 H 52.490434572362744 44.53904160955085 44.62914095329178 H 0.0 **** 0.06
6288 H 52.98203470984072 46.126641477481144 45.26813026340631 H 0.0 **** 0.06
6289 H 53.74520223122215 44.64135450191861 45.88701908127555 H 0.0 **** 0.06
6290 H 52.049562552062866 45.00532833396369 46.28939509125702 H 0.0 **** 0.06
6291 C 115.96002308037811 130.2380984539926 5.7192812864277585 C 0.0 **** -0.24
6292 H 116.78094263762105 130.02253763107598 5.035459617148433 H 0.0 **** 0.06
6293 H 115.70682124850677 129.33589842188417 6.2776355655472 H 0.0 **** 0.06
6294 H 115.09185715827819 130.56882403077927 5.149929947922828 H 0.0 **** 0.06
6295 H 116.26028713880218 131.02295979957947 6.41298626215513 H 0.0 **** 0.06
6296 C 8.793011148767249 75.1124830969141 6.972784026064446 C 0.0 **** -0.24
6297 H 8.171426909809014 75.27076720225546 7.853896747292751 H 0.0 **** 0.06
6298 H 9.792569620106093 74.80970124628737 7.283937453539789 H 0.0 **** 0.06
6299 H 8.85489990787761 76.03865784951557 6.401404485914046 H 0.0 **** 0.06
6300 H 8.35210706185481 74.33175546042833 6.352019594633077 H 0.0 **** 0.06
6301 C 57.677959348493005 86.87999237066731 57.06576754014708 C 0.0 **** -0.24
6302 H 58.03749584677405 87.47770882132733 56.22921274641192 H 0.0 **** 0.06
6303 H 56.68257177738225 86.49819340016853 56.838689138097806 H 0.0 **** 0.06
6304 H 57.635023365211495 87.49848798255334 57.96319845221966 H 0.0 **** 0.06
6305 H 58.35792104552863 86.04406095933217 57.23349142201057 H 0.0 **** 0.06
6306 C 68.63745406493777 35.659496834859226 51.26083676457293 C 0.0 **** -0.24
6307 H 69.56101441182548 35.27432738092605 51.69477147381342 H 0.0 **** 0.06
6308 H 68.7384470721214 35.70566691236846 50.17660007694765 H 0.0 **** 0.06
6309 H 68.44168901514396 36.657278616184556 51.651507908951615 H 0.0 **** 0.06
6310 H 67.81036432949173 34.99843093085232 51.52141680840923 H 0.0 **** 0.06
6311 C 7.412885924248812 67.99554873085603 23.676989224857095 C 0.0 **** -0.24
6312 H 7.748040022612329 69.02485245627079 23.548981235995818 H 0.0 **** 0.06
6313 H 6.325333072856807 67.95919378954446 23.618375649575853 H 0.0 **** 0.06
6314 H 7.737825110929748 67.62672169782323 24.649739244559093 H 0.0 **** 0.06
6315 H 7.84143544823165 67.37439554543617 22.89087380099361 H 0.0 **** 0.06
6316 C 84.82497049782376 39.71599466501846 60.73391490090472 C 0.0 **** -0.24
6317 H 85.07918337443425 39.0935032645998 61.59190543036998 H 0.0 **** 0.06
6318 H 83.76078484129096 39.95258498558769 60.7586015922889 H 0.0 **** 0.06
6319 H 85.0560786726777 39.177622571879 59.813681190675766 H 0.0 **** 0.06
6320 H 85.40422975078445 40.63856128509451 60.77008135073724 H 0.0 **** 0.06
6321 C 9.633565774936699 44.77120876373446 82.8562997376861 C 0.0 **** -0.24
6322 H 9.356958309205766 45.15977971075593 83.83639432377285 H 0.0 **** 0.06
6323 H 8.993883438674914 45.21833230103366 82.09490459603555 H 0.0 **** 0.06
6324 H 9.507665749556452 43.68812479055108 82.84703631891162 H 0.0 **** 0.06
6325 H 10.674931785700835 45.01840854009531 82.64893388474869 H 0.0 **** 0.06
6326 C 90.82782579056651 65.69016028100788 95.78824147706145 C 0.0 **** -0.24
6327 H 91.59642181721622 65.26297262593584 95.14369329681513 H 0.0 **** 0.06
6328 H 91.08650104265276 65.50770409163187 96.8320237393554 H 0.0 **** 0.06
6329 H 89.8675348114006 65.22465218266404 95.56504885353695 H 0.0 **** 0.06
6330 H 90.76083175994249 66.7630848480538 95.61200281688747 H 0.0 **** 0.06
6331 C 124.67141457282659 94.2517597966989 19.193740028826994 C 0.0 **** -0.24
6332 H 123.9809511395618 94.45224564402884 20.012416454266884 H 0.0 **** 0.06
6333 H 124.90032197336055 95.18267904912238 18.67554008126274 H 0.0 **** 0.06
6334 H 124.21340122281276 93.55055325872567 18.496173093006888 H 0.0 **** 0.06
6335 H 125.59033685306308 93.82094216737659 19.591275536960893 H 0.0 **** 0.06
6336 C 20.312984065193604 56.508750632918506 95.60113904445922 C 0.0 **** -0.24
6337 H 21.141091502654064 55.90956116853127 95.9810845483986 H 0.0 **** 0.06
6338 H 20.68323884455387 57.197221791879414 94.84156394774908 H 0.0 **** 0.06
6339 H 19.869047811000854 57.07529411639864 96.42033719572777 H 0.0 **** 0.06
6340 H 19.56169813107229 55.852596849366506 95.16357872466548 H 0.0 **** 0.06
6341 C 13.614688876698906 11.774628266976066 64.24403219285294 C 0.0 **** -0.24
6342 H 14.616263766994212 11.52867042955259 64.59695280215959 H 0.0 **** 0.06
6343 H 13.225693837908818 12.617926852874064 64.81591846124324 H 0.0 **** 0.06
6344 H 12.961098831622206 10.912979087614104 64.37710424465692 H 0.0 **** 0.06
6345 H 13.656990341429271 12.040294649227604 63.18773089530592 H 0.0 **** 0.06
6346 C 120.42302486432982 51.13798647307448 115.31371189980091 C 0.0 **** -0.24
6347 H 120.56471018018078 50.706110229755836 116.30487318898345 H 0.0 **** 0.06
6348 H 119.3753457793797 51.04951295388133 115.02577187845601 H 0.0 **** 0.06
6349 H 121.04503531192358 50.60643307220215 114.59385814477342 H 0.0 **** 0.06
6350 H 120.70762996404176 52.190231795139425 115.33308240943269 H 0.0 **** 0.06
6351 C 91.67608956293085 110.86126458169915 105.12142084449383 C 0.0 **** -0.24
6352 H 91.61810364521412 111.27193522565861 104.11338576191733 H 0.0 **** 0.06
6353 H 92.60714727710248 110.30488930415608 105.23413113820092 H 0.0 **** 0.06
6354 H 90.83016897833915 110.19488895696132 105.2910922301127 H 0.0 **** 0.06
6355 H 91.64896510115923 111.67501953258986 105.8459811269704 H 0.0 **** 0.06
6356 C 121.31542650921233 86.97867149659959 129.61057815263607 C 0.0 **** -0.24
6357 H 121.618352727917 88.02299127315754 129.53219191085114 H 0.0 **** 0.06
6358 H 120.63190945972363 86.73677296266806 128.79678087754777 H 0.0 **** 0.06
6359 H 120.81615948725994 86.81629628570852 130.56641457477897 H 0.0 **** 0.06
6360 H 122.19710145495318 86.33999029707019 129.5478394364923 H 0.0 **** 0.06
6361 C 84.4028484723535 20.809716450385537 7.755880222859901 C 0.0 **** -0.24
6362 H 85.07868162630375 21.66483358795645 7.78515033640636 H 0.0 **** 0.06
6363 H 84.67884560124457 20.10363090112412 8.539163224479324 H 0.0 **** 0.06
6364 H 84.47651764239751 20.32208517057981 6.784126640307335 H 0.0 **** 0.06
6365 H 83.37998922419705 21.14955358035556 7.915786784117898 H 0.0 **** 0.06
6366 C 74.39960434302559 2.606298787877364 63.31796353974008 C 0.0 **** -0.24
6367 H 74.2058167759013 1.9071360767025283 62.50370533481271 H 0.0 **** 0.06
6368 H 73.82596538314108 3.518863489521479 63.155684513151044 H 0.0 **** 0.06
6369 H 75.46284518954096 2.8440456308219666 63.347759493704615 H 0.0 **** 0.06
6370 H 74.10181405812172 2.1529390810673306 64.26424863408593 H 0.0 **** 0.06
6371 C 129.79891854501486 17.977339371982538 112.6642735413669 C 0.0 **** -0.24
6372 H 129.00654866892734 18.357963741140708 112.0204183616897 H 0.0 **** 0.06
6373 H 129.47504074557074 18.021534707717734 113.7044189395418 H 0.0 **** 0.06
6374 H 130.69493311285507 18.58555180127732 112.53584040913995 H 0.0 **** 0.06
6375 H 130.02011361879926 16.94431882822292 112.39614342973653 H 0.0 **** 0.06
6376 C 112.25103366846388 92.85848480463146 91.45569289619725 C 0.0 **** -0.24
6377 H 111.17575723058023 93.03947373160352 91.446095284891 H 0.0 **** 0.06
6378 H 112.52591831842443 92.3646370982675 92.38770434528244 H 0.0 **** 0.06
6379 H 112.77954742168289 93.80748282750022 91.37670348922326 H 0.0 **** 0.06
6380 H 112.51987392682236 92.22089561438477 90.61308714764463 H 0.0 **** 0.06
6381 C 126.5859447713189 52.99207500149808 12.559802293632018 C 0.0 **** -0.24
6382 H 127.16221813630057 53.74607687322262 12.023644057298526 H 0.0 **** 0.06
6383 H 125.52752635327028 53.25111179921211 12.524279232196776 H 0.0 **** 0.06
6384 H 126.91498502529231 52.95348664186346 13.598368100256806 H 0.0 **** 0.06
6385 H 126.73831147746611 52.018686932633926 12.093489601955383 H 0.0 **** 0.06
6386 C 48.30858828535895 36.90957441960748 117.36544604072179 C 0.0 **** -0.24
6387 H 47.6295422935147 37.12966633451116 116.54223069183075 H 0.0 **** 0.06
6388 H 48.49578793416691 37.82035191243699 117.9351180294052 H 0.0 **** 0.06
6389 H 49.24977147616556 36.529531316476984 116.96779679015214 H 0.0 **** 0.06
6390 H 47.85980296255303 36.15838855950279 118.01588592578281 H 0.0 **** 0.06
6391 C 29.310463351180687 8.802232752664352 23.49637579118999 C 0.0 **** -0.24
6392 H 30.27529775658158 9.26627205769023 23.293542059415103 H 0.0 **** 0.06
6393 H 28.590275594745265 9.570967616785609 23.78107900156388 H 0.0 **** 0.06
6394 H 29.416085727742768 8.084260432786024 24.30979520433621 H 0.0 **** 0.06
6395 H 28.9589179881971 8.288323395187007 22.601844915901324 H 0.0 **** 0.06
6396 C 117.26238199918072 20.86400940195756 51.767548362965655 C 0.0 **** -0.24
6397 H 116.74869650130739 20.486055091862795 52.651248647567925 H 0.0 **** 0.06
6398 H 116.5653118864592 20.90211434498559 50.930708045946204 H 0.0 **** 0.06
6399 H 118.09219700110577 20.20226371699141 51.5191068458431 H 0.0 **** 0.06
6400 H 117.64406704074031 21.86494486323562 51.96902591414866 H 0.0 **** 0.06
6401 C 92.41982867731107 114.66433276375794 93.69442222095498 C 0.0 **** -0.24
6402 H 92.4819741141989 115.60350273160336 94.24460238570528 H 0.0 **** 0.06
6403 H 91.5198834310023 114.66306323039002 93.07891231192293 H 0.0 **** 0.06
6404 H 92.38161955192189 113.8323097212333 94.39793428184073 H 0.0 **** 0.06
6405 H 93.29714901944456 114.55955943763287 93.05599207915566 H 0.0 **** 0.06
6406 C 99.50950104500333 16.493966941575344 23.935929226273885 C 0.0 **** -0.24
6407 H 100.11755468166291 15.629686033134828 23.66828997415672 H 0.0 **** 0.06
6408 H 99.54380924797637 17.2251227665163 23.12778652914369 H 0.0 **** 0.06
6409 H 99.8977230745044 16.942308547135617 24.849501791349496 H 0.0 **** 0.06
6410 H 98.47868938048391 16.177339258296417 24.095317743066474 H 0.0 **** 0.06
6411 C 39.47031440262862 38.875330336290745 88.35562892457752 C 0.0 **** -0.24
6412 H 39.51946304366925 38.17837011270416 89.19259269896892 H 0.0 **** 0.06
6413 H 40.479386344458476 39.09800676211273 88.00852302440865 H 0.0 **** 0.06
6414 H 38.98561261103936 39.797144176194394 88.67922583365048 H 0.0 **** 0.06
6415 H 38.89556061883712 38.42861373132584 87.54478443188003 H 0.0 **** 0.06
6416 C 115.33674169960311 51.08663211661451 64.93475766623561 C 0.0 **** -0.24
6417 H 114.57337665763608 50.56184082917582 64.36007131401288 H 0.0 **** 0.06
6418 H 116.31679927839625 50.66947764187864 64.70226297150793 H 0.0 **** 0.06
6419 H 115.13494995558288 50.96976315355147 65.99941450968362 H 0.0 **** 0.06
6420 H 115.3210050400104 52.14589073954522 64.67623096848155 H 0.0 **** 0.06
6421 C 21.681511854767166 98.16428779218376 42.411107267761764 C 0.0 **** -0.24
6422 H 21.019981151315164 98.9632719736332 42.74632941938867 H 0.0 **** 0.06
6423 H 21.164721883214412 97.20778632999193 42.488834627934466 H 0.0 **** 0.06
6424 H 22.574789616634888 98.1459259300124 43.03631460245282 H 0.0 **** 0.06
6425 H 21.96790911186517 98.3406236942325 41.37434947356647 H 0.0 **** 0.06
6426 C 41.78851690794193 112.88399864652497 109.73882250834959 C 0.0 **** -0.24
6427 H 40.81498991799071 113.34608571904498 109.57668621702419 H 0.0 **** 0.06
6428 H 42.26559241421922 113.33721250452179 110.60907520456095 H 0.0 **** 0.06
6429 H 42.413853509155935 113.03866074503664 108.8597928072976 H 0.0 **** 0.06
6430 H 41.659497340829425 111.815317718731 109.91031739856203 H 0.0 **** 0.06
6431 C 19.55418450112583 12.54157338986704 91.46554955876013 C 0.0 **** -0.24
6432 H 20.09115251630797 13.212991994817457 90.79662146596894 H 0.0 **** 0.06
6433 H 19.131421343929276 11.717417519873266 90.8897032545288 H 0.0 **** 0.06
6434 H 18.752347449460302 13.087834000520616 91.9617835044811 H 0.0 **** 0.06
6435 H 20.241378693282826 12.145733402595283 92.2134254336766 H 0.0 **** 0.06
6436 C 70.44134299878326 48.51542627829058 70.07412656508487 C 0.0 **** -0.24
6437 H 70.19801967416555 47.45819931658372 69.97734702167523 H 0.0 **** 0.06
6438 H 70.84583062864186 48.70564079390476 71.06856142871399 H 0.0 **** 0.06
6439 H 69.53947014213608 49.110748932125006 69.92897905449539 H 0.0 **** 0.06
6440 H 71.18143820108853 48.788320630680275 69.32270180929359 H 0.0 **** 0.06
6441 C 41.527167168854476 130.6643514886919 21.355319338140667 C 0.0 **** -0.24
6442 H 41.48558032261951 129.83567537742562 20.64815674762289 H 0.0 **** 0.06
6443 H 40.649054410106146 131.2979157310922 21.222387332038288 H 0.0 **** 0.06
6444 H 42.429324328014786 131.24975833913214 21.176523995120363 H 0.0 **** 0.06
6445 H 41.542612479006266 130.27275961614308 22.372229213319685 H 0.0 **** 0.06
6446 C 113.76225119231538 43.71672220415468 104.72996440322163 C 0.0 **** -0.24
6447 H 113.3467509523349 43.04606304100369 103.9782069443616 H 0.0 **** 0.06
6448 H 113.74960337608564 43.22455940181982 105.70284842627518 H 0.0 **** 0.06
6449 H 113.16308083559056 44.627257488213516 104.77530713694341 H 0.0 **** 0.06
6450 H 114.78769023345893 43.970302216431406 104.46438706532683 H 0.0 **** 0.06
6451 C 117.61033326919434 62.75547398925622 21.373709262525637 C 0.0 **** -0.24
6452 H 118.11569093830178 61.80198082259278 21.221709752172472 H 0.0 **** 0.06
6453 H 117.32791596575953 62.853661525330594 22.42162868328697 H 0.0 **** 0.06
6454 H 116.71756800025864 62.796862185105525 20.750306005598787 H 0.0 **** 0.06
6455 H 118.28240245788456 63.570239200118465 21.100697842166795 H 0.0 **** 0.06
6456 C 42.164301834895866 87.97980978963179 38.15129865874929 C 0.0 **** -0.24
6457 H 42.8472760327399 87.76477321041727 38.97281795588823 H 0.0 **** 0.06
6458 H 41.4645387383369 87.15203019497818 38.03485966094192 H 0.0 **** 0.06
6459 H 42.734048435107695 88.10848572900159 37.23070764487786 H 0.0 **** 0.06
6460 H 41.61309188879767 88.8952798236912 38.36789441701596 H 0.0 **** 0.06
6461 C 90.32801335112998 100.94741429569896 39.79675682922871 C 0.0 **** -0.24
6462 H 90.37400808439384 100.54796410939977 38.783581371417455 H 0.0 **** 0.06
6463 H 90.28539750892355 102.03568304982579 39.75613095990232 H 0.0 **** 0.06
6464 H 91.21471080583672 100.63943355028599 40.349900477095474 H 0.0 **** 0.06
6465 H 89.43720652413361 100.56661246399034 40.296732483729016 H 0.0 **** 0.06
6466 C 52.599676034933395 87.69299105530911 51.49280505824399 C 0.0 **** -0.24
6467 H 52.87035015954385 86.96770247722759 52.259952665170275 H 0.0 **** 0.06
6468 H 53.505568878275454 88.09063077909084 51.033753477706725 H 0.0 **** 0.06
6469 H 52.03424815665116 88.50627903497241 51.945921328509755 H 0.0 **** 0.06
6470 H 51.9902920302097 87.20564574577702 50.73168735602907 H 0.0 **** 0.06
6471 C 70.45236809439886 4.6593620848427975 48.907262090037776 C 0.0 **** -0.24
6472 H 70.42920005377972 5.3003470506282895 49.78910620214242 H 0.0 **** 0.06
6473 H 69.5495682742256 4.820688674180133 48.31729027376647 H 0.0 **** 0.06
6474 H 70.5018274466258 3.616351044619563 49.21852590387175 H 0.0 **** 0.06
6475 H 71.32851666726441 4.90180690022018 48.30580663625741 H 0.0 **** 0.06
6476 C 5.796123200978002 35.15030757269591 1.799959879707842 C 0.0 **** -0.24
6477 H 5.275147729727621 34.36761800675856 1.2482841723962679 H 0.0 **** 0.06
6478 H 5.158299182358746 36.03147482076241 1.8704459048965703 H 0.0 **** 0.06
6479 H 6.718002294216376 35.408594470602736 1.2782316717179754 H 0.0 **** 0.06
6480 H 6.03384191544734 34.79211569250822 2.802307094121005 H 0.0 **** 0.06
6481 C 21.775038638342437 121.88636832316965 45.11023142465312 C 0.0 **** -0.24
6482 H 21.901587806403484 122.81305844057673 45.6705708219956 H 0.0 **** 0.06
6483 H 21.531508462050567 121.0769523233134 45.798254132985875 H 0.0 **** 0.06
6484 H 22.699392744420578 121.65147640759236 44.58343574398475 H 0.0 **** 0.06
6485 H 20.965827833256384 122.00635266483133 44.388816019080906 H 0.0 **** 0.06
6486 C 120.92008027110757 25.914578156197706 60.77149856939185 C 0.0 **** -0.24
6487 H 121.43836897397597 25.20202892069426 60.129877284740886 H 0.0 **** 0.06
6488 H 121.44969627380215 26.86850350164704 60.75623619899099 H 0.0 **** 0.06
6489 H 120.88954122756644 25.531558332026833 61.79106053274059 H 0.0 **** 0.06
6490 H 119.90290261312225 26.05897151824169 60.406289475714374 H 0.0 **** 0.06
6491 C 0.6912922782716464 25.90335209614048 54.37233343024059 C 0.0 **** -0.24
6492 H 1.0388701386871162 24.885776293873448 54.19455948815775 H 0.0 **** 0.06
6493 H 0.37673767680541914 26.349410121783478 53.427695811681275 H 0.0 **** 0.06
6494 H 1.5005617548012538 26.49448781554824 54.801287926292844 H 0.0 **** 0.06
6495 H -0.1513308688886923 25.883450176677968 55.0635972175767 H 0.0 **** 0.06
6496 C 114.26236644135273 29.756074618262232 17.048213035686615 C 0.0 **** -0.24
6497 H 115.31262101554464 29.69757306850957 16.76533271319113 H 0.0 **** 0.06
6498 H 114.15469478365364 29.501614719269412 18.102615920697616 H 0.0 **** 0.06
6499 H 113.68403239221036 29.056336823628882 16.44511669123989 H 0.0 **** 0.06
6500 H 113.89684463363963 30.768581084011686 16.87920152152452 H 0.0 **** 0.06
6501 C 73.85027650788854 72.34078058181962 129.72889687835686 C 0.0 **** -0.24
6502 H 73.98891967273518 73.42161704317704 129.73514594392464 H 0.0 **** 0.06
6503 H 73.24530547077215 72.04675864726966 130.58687394197614 H 0.0 **** 0.06
6504 H 74.82234771264139 71.85018510614549 129.7854403219169 H 0.0 **** 0.06
6505 H 73.34688441311488 72.04443644821123 128.8088028582016 H 0.0 **** 0.06
6506 C 113.44093327812297 6.231600555371415 6.837739664882179 C 0.0 **** -0.24
6507 H 113.42620097058196 5.6619174408368735 5.9081786830125225 H 0.0 **** 0.06
6508 H 114.41025566830294 6.719620795126133 6.947830164014192 H 0.0 **** 0.06
6509 H 113.27415872435026 5.559522461186987 7.678582494794398 H 0.0 **** 0.06
6510 H 112.65475873589193 6.985982596142577 6.813066261347728 H 0.0 **** 0.06
6511 C 115.43025818667206 51.9861842530657 103.87128439520404 C 0.0 **** -0.24
6512 H 114.81087883942553 52.65753147099245 103.27538702048707 H 0.0 **** 0.06
6513 H 116.2717043728569 51.64060337010575 103.27111557394642 H 0.0 **** 0.06
6514 H 114.83508107954685 51.13130317856256 104.19102488980462 H 0.0 **** 0.06
6515 H 115.8023406084937 52.51833886799545 104.74677146383243 H 0.0 **** 0.06
6516 C 111.86335230164632 105.8269800781917 4.078976045529771 C 0.0 **** -0.24
6517 H 110.9467310761923 105.23877178545126 4.112887106024004 H 0.0 **** 0.06
6518 H 112.42222166795784 105.57525660401086 3.1761909437086047 H 0.0 **** 0.06
6519 H 112.4704062617833 105.60516995551743 4.955734926012212 H 0.0 **** 0.06
6520 H 111.61411615167415 106.88817207974455 4.06814268519463 H 0.0 **** 0.06
6521 C 46.82226078538429 76.22879867140651 112.62492218271026 C 0.0 **** -0.24
6522 H 45.96909504740438 76.71138921278757 113.10066792106133 H 0.0 **** 0.06
6523 H 46.85129717974388 76.50236533027743 111.57011525647704 H 0.0 **** 0.06
6524 H 46.725015459950015 75.14694890527565 112.71692713937804 H 0.0 **** 0.06
6525 H 47.741489135560386 76.55413278206274 113.11085362024576 H 0.0 **** 0.06
6526 C 101.54821689554713 100.40208974758747 43.06318676008055 C 0.0 **** -0.24
6527 H 102.25277559056954 99.57776327242829 43.17871356315392 H 0.0 **** 0.06
6528 H 101.70486593594605 100.87985855206585 42.09565300708022 H 0.0 **** 0.06
6529 H 101.70854743428862 101.12986534095035 43.85862391827738 H 0.0 **** 0.06
6530 H 100.52933699125848 100.01868805674414 43.119350475928954 H 0.0 **** 0.06
6531 C 70.27538153194828 87.59741121068137 26.41156600190257 C 0.0 **** -0.24
6532 H 69.61590899143178 87.29798407087341 27.22633949402774 H 0.0 **** 0.06
6533 H 70.77900626312328 86.71706900964963 26.010217899368143 H 0.0 **** 0.06
6534 H 71.01819052639476 88.30165709238057 26.786880580251562 H 0.0 **** 0.06
6535 H 69.68849281548586 88.07126369127536 25.625690155893636 H 0.0 **** 0.06
6536 C 23.259190211770573 61.72836538559696 59.56121612126252 C 0.0 **** -0.24
6537 H 23.87122234573735 61.048486403177904 60.15609497549055 H 0.0 **** 0.06
6538 H 22.54999093792287 61.152336782600585 58.967012541623575 H 0.0 **** 0.06
6539 H 23.901651196693336 62.30993897210831 58.89984744026779 H 0.0 **** 0.06
6540 H 22.71614515792797 62.401065570178574 60.22441439736322 H 0.0 **** 0.06
6541 C 119.01052155099498 34.692555173815926 98.38427952105613 C 0.0 **** -0.24
6542 H 118.69484523984772 35.147836589464916 97.44522478069878 H 0.0 **** 0.06
6543 H 118.90930562222314 35.41832481258372 99.19108447064102 H 0.0 **** 0.06
6544 H 120.05246077353215 34.38077490172062 98.30410936746233 H 0.0 **** 0.06
6545 H 118.38571116812278 33.82468048267718 98.59496879222505 H 0.0 **** 0.06
6546 C 71.19487948606965 0.8852890723259925 52.58651077645237 C 0.0 **** -0.24
6547 H 71.10941538006807 1.0152201095494142 53.66553037884009 H 0.0 **** 0.06
6548 H 70.83830077135696 -0.1073115000967082 52.31129595851999 H 0.0 **** 0.06
6549 H 72.23858957411062 0.9926696691219519 52.289845692173174 H 0.0 **** 0.06
6550 H 70.59345087690247 1.6416225657985422 52.081333785306555 H 0.0 **** 0.06
6551 C 127.73689675593751 25.15747739381004 85.80869122256959 C 0.0 **** -0.24
6552 H 128.2801750135553 24.319055215194425 85.37434990575545 H 0.0 **** 0.06
6553 H 126.6647428768672 24.9985135348484 85.68812966641306 H 0.0 **** 0.06
6554 H 128.02636306409968 26.078375293890986 85.30261141090872 H 0.0 **** 0.06
6555 H 127.97505325936838 25.235817749562017 86.86967980090665 H 0.0 **** 0.06
6556 C 111.59393162328371 50.33710407866164 83.77507770763592 C 0.0 **** -0.24
6557 H 112.08867955723616 50.195994559926845 84.73687454006347 H 0.0 **** 0.06
6558 H 111.44488321287577 51.40248644239726 83.59635579724241 H 0.0 **** 0.06
6559 H 110.62872252149788 49.83074570123415 83.78532733045196 H 0.0 **** 0.06
6560 H 112.21601090583118 49.91899564012225 82.9829191141734 H 0.0 **** 0.06
6561 C 13.807093591699402 54.102593006288274 16.891177042755345 C 0.0 **** -0.24
6562 H 13.441330033266095 53.17280050433547 17.32801848954469 H 0.0 **** 0.06
6563 H 13.408310404598318 54.947885806909184 17.45092113707122 H 0.0 **** 0.06
6564 H 13.480351437243385 54.167484910181514 15.853399096043944 H 0.0 **** 0.06
6565 H 14.895897695498082 54.11905592616411 16.93140172725643 H 0.0 **** 0.06
6566 C 87.49765050148761 117.96800083338974 65.89901580281887 C 0.0 **** -0.24
6567 H 87.80763137275903 117.22999670373027 66.63967112155798 H 0.0 **** 0.06
6568 H 87.69607544196816 118.96971536198737 66.27969676449362 H 0.0 **** 0.06
6569 H 86.43121585961336 117.85923073912332 65.70260381779903 H 0.0 **** 0.06
6570 H 88.05582578309156 117.81231600029093 64.97564855502605 H 0.0 **** 0.06
6571 C 113.14328537841182 129.51335995860452 29.065839315910324 C 0.0 **** -0.24
6572 H 114.05229519211879 129.87995303703786 28.587924890082604 H 0.0 **** 0.06
6573 H 112.47774334946773 129.09743087169497 28.309082881400208 H 0.0 **** 0.06
6574 H 112.64500475394495 130.33586663067808 29.577634770017063 H 0.0 **** 0.06
6575 H 113.4017718719147 128.73884133197697 29.78741540902616 H 0.0 **** 0.06
6576 C 47.93980740348938 49.376988343616546 85.72190431770863 C 0.0 **** -0.24
6577 H 47.34064446588627 49.26869291676795 84.81823053679864 H 0.0 **** 0.06
6578 H 47.34517231439443 49.864219826031345 86.49443136912157 H 0.0 **** 0.06
6579 H 48.81912094155874 49.982683932772034 85.50320586612767 H 0.0 **** 0.06
6580 H 48.2534482159484 48.39276606486166 86.06948654370078 H 0.0 **** 0.06
6581 C 124.17978589083212 52.80151560342995 112.02961452421391 C 0.0 **** -0.24
6582 H 123.67677637126472 51.83508082634779 111.99403750240714 H 0.0 **** 0.06
6583 H 124.48730834558621 53.013517930279136 113.05392768830558 H 0.0 **** 0.06
6584 H 123.49814312602713 53.57854875828423 111.68461879959892 H 0.0 **** 0.06
6585 H 125.0586349362603 52.777492698674735 111.38386857735674 H 0.0 **** 0.06
6586 C 7.895149404827805 70.34453520397511 54.45467663873404 C 0.0 **** -0.24
6587 H 8.101462660930565 69.30110785284651 54.6918909795628 H 0.0 **** 0.06
6588 H 8.109337826674675 70.52640448482666 53.40051750848589 H 0.0 **** 0.06
6589 H 8.523417684673348 70.98878246961615 55.06972777215552 H 0.0 **** 0.06
6590 H 6.845617541279182 70.5621810813582 54.655426906007506 H 0.0 **** 0.06
6591 C 12.608363674256623 65.3399684401807 98.11506805629483 C 0.0 **** -0.24
6592 H 12.701287364969424 66.02736731592435 97.27373310932074 H 0.0 **** 0.06
6593 H 13.541520970069978 65.32847164717803 98.67903330636895 H 0.0 **** 0.06
6594 H 12.397048775081494 64.33761957120457 97.7433272905671 H 0.0 **** 0.06
6595 H 11.795782237122399 65.66637334599541 98.76370330401662 H 0.0 **** 0.06
6596 C 65.52317743130256 31.113315005310824 116.02492116245966 C 0.0 **** -0.24
6597 H 64.74235130975657 30.716231966649445 116.67333544465427 H 0.0 **** 0.06
6598 H 65.2422341738493 32.11084044028195 115.68703602646426 H 0.0 **** 0.06
6599 H 65.64530216134074 30.45731745467633 115.16222520718918 H 0.0 **** 0.06
6600 H 66.46189283012964 31.166020165774356 116.57696741979527 H 0.0 **** 0.06
6601 C 96.30513565548804 103.37248536149869 16.030634961548955 C 0.0 **** -0.24
6602 H 96.15217434536106 103.20501572474039 14.964664883411118 H 0.0 **** 0.06
6603 H 96.11288916979137 104.41979497479312 16.264505342683265 H 0.0 **** 0.06
6604 H 97.33374000021237 103.1236213372054 16.293220784357487 H 0.0 **** 0.06
6605 H 95.62223096504846 102.74200951723542 16.59892079699827 H 0.0 **** 0.06
6606 C 48.32596057986948 89.61855915666055 38.77255375239992 C 0.0 **** -0.24
6607 H 49.209938620272595 90.23048582973402 38.59410202525614 H 0.0 **** 0.06
6608 H 47.521917292079785 90.24444902093613 39.159567619424166 H 0.0 **** 0.06
6609 H 48.564029579005464 88.8420193656856 39.49968275842145 H 0.0 **** 0.06
6610 H 48.00966805102482 89.15602094697788 37.8375559363158 H 0.0 **** 0.06
6611 C 19.963478873887105 61.92791261093214 122.62708360424142 C 0.0 **** -0.24
6612 H 20.041604548888593 61.85072711896777 121.54238351748575 H 0.0 **** 0.06
6613 H 20.81981023210573 61.43548251382259 123.08870435528661 H 0.0 **** 0.06
6614 H 19.044519570147315 61.44675244613046 122.96019634779066 H 0.0 **** 0.06
6615 H 19.949199953403962 62.978438925178466 122.91637759221106 H 0.0 **** 0.06
6616 C 107.72247024590305 45.21377605766947 40.16590746530244 C 0.0 **** -0.24
6617 H 107.76704781970429 44.786483295386965 41.167640064882164 H 0.0 **** 0.06
6618 H 106.82046262198031 45.817926555479666 40.0684605949842 H 0.0 **** 0.06
6619 H 107.7043057655749 44.41071328112522 39.42908475884488 H 0.0 **** 0.06
6620 H 108.59907862958696 45.84043302694628 39.999774115508814 H 0.0 **** 0.06
6621 C 54.88426663728498 50.47878519620443 43.35960841978475 C 0.0 **** -0.24
6622 H 54.91601307629021 51.252653760416365 44.12758899671239 H 0.0 **** 0.06
6623 H 53.854783571728206 50.33395009434619 43.03290695124676 H 0.0 **** 0.06
6624 H 55.27074230143066 49.545667756559595 43.76998982272288 H 0.0 **** 0.06
6625 H 55.496395897325925 50.78395589038047 42.511421507299076 H 0.0 **** 0.06
6626 C 43.88570340264013 19.312469080452047 38.39269016349499 C 0.0 **** -0.24
6627 H 43.632939938062435 19.06546455816641 39.42404650067192 H 0.0 **** 0.06
6628 H 44.85498124922353 19.81159597258332 38.36586963169813 H 0.0 **** 0.06
6629 H 43.124261914653644 19.974196588936906 37.98046206292511 H 0.0 **** 0.06
6630 H 43.93107991571989 18.398345164225987 37.80123274830632 H 0.0 **** 0.06
6631 C 105.29372160939047 74.26130947766647 0.9533911204440066 C 0.0 **** -0.24
6632 H 106.34221853854453 74.52808847326308 0.8271115297996481 H 0.0 **** 0.06
6633 H 104.80727362973053 74.22582149367261 -0.022162322100244936 H 0.0 **** 0.06
6634 H 104.8023260725401 75.0065434612658 1.5787271850764313 H 0.0 **** 0.06
6635 H 105.22304939366117 73.28378463725869 1.4298846309918574 H 0.0 **** 0.06
6636 C 34.086008416551735 16.92139508692634 49.02679982132091 C 0.0 **** -0.24
6637 H 33.4501057201603 17.180438910732477 49.872482650023784 H 0.0 **** 0.06
6638 H 34.94608862249533 17.59142436453689 49.00054440550488 H 0.0 **** 0.06
6639 H 33.519317874587706 17.020057561674207 48.1015674453007 H 0.0 **** 0.06
6640 H 34.42999222587116 15.892439472547835 49.133195162164355 H 0.0 **** 0.06
6641 C 50.84199035116836 130.7850868863743 29.11436614463497 C 0.0 **** -0.24
6642 H 50.72199505555557 130.13135332409547 28.24978295397017 H 0.0 **** 0.06
6643 H 49.90285692786159 131.30201433453962 29.312087934316907 H 0.0 **** 0.06
6644 H 51.625121480737874 131.5157060670933 28.911435796440372 H 0.0 **** 0.06
6645 H 51.11895837474634 130.18846435797593 29.983750849115637 H 0.0 **** 0.06
6646 C 108.7958076623749 69.29428432817157 120.36243958225057 C 0.0 **** -0.24
6647 H 108.46808851022007 69.50675132334908 121.37972536526209 H 0.0 **** 0.06
6648 H 109.76030019740278 68.78756402861029 120.38957143948724 H 0.0 **** 0.06
6649 H 108.89259602302963 70.22969312140833 119.80943055116069 H 0.0 **** 0.06
6650 H 108.06230989165198 68.65611079836555 119.8707079695854 H 0.0 **** 0.06
6651 C 64.95939378901235 55.59241168880425 108.56148671946914 C 0.0 **** -0.24
6652 H 66.00108575323328 55.656313755419944 108.2473564360555 H 0.0 **** 0.06
6653 H 64.80852240093321 56.21075841211088 109.44725063420304 H 0.0 **** 0.06
6654 H 64.7137942540837 54.5563332140118 108.79541994614885 H 0.0 **** 0.06
6655 H 64.31412085276173 55.94600970212055 107.75689129913832 H 0.0 **** 0.06
6656 C 25.560161165752078 0.8130401604224176 75.96541671516763 C 0.0 **** -0.24
6657 H 25.25313732138946 0.5221635749803681 76.97006324277896 H 0.0 **** 0.06
6658 H 25.07353965107899 0.16550167746265743 75.23567915046095 H 0.0 **** 0.06
6659 H 26.641532492178925 0.715746579796189 75.87417291966406 H 0.0 **** 0.06
6660 H 25.271637528886316 1.8486967088346091 75.78383991762927 H 0.0 **** 0.06
6661 C 49.792093514005984 33.38337192191661 86.12189019136763 C 0.0 **** -0.24
6662 H 49.20316026147904 34.246629318647784 85.81267386492662 H 0.0 **** 0.06
6663 H 50.17376789877673 32.87040503764791 85.23899658452834 H 0.0 **** 0.06
6664 H 49.16372717359806 32.70118917924367 86.6954326720386 H 0.0 **** 0.06
6665 H 50.62658388292951 33.714796641939174 86.73975501603844 H 0.0 **** 0.06
6666 C 60.88626070758977 125.15065932900951 105.87781610152142 C 0.0 **** -0.24
6667 H 61.877267941021216 125.60286820759555 105.88312457826068 H 0.0 **** 0.06
6668 H 60.86228034462039 124.3372780258672 105.15271868881155 H 0.0 **** 0.06
6669 H 60.14540499157482 125.90302709599045 105.60633857001557 H 0.0 **** 0.06
6670 H 60.66100938343084 124.76008638210433 106.8704117431418 H 0.0 **** 0.06
6671 C 85.63235869433913 93.08057369033251 108.13410023951165 C 0.0 **** -0.24
6672 H 86.70618673768809 93.18117849378791 107.976051252279 H 0.0 **** 0.06
6673 H 85.09813534184565 93.6187900057462 107.35159142975638 H 0.0 **** 0.06
6674 H 85.36863649427983 93.49705359669044 109.10634741373775 H 0.0 **** 0.06
6675 H 85.35874530397729 92.02580539046517 108.1031643359659 H 0.0 **** 0.06
6676 C 22.65799187774607 0.04799866006692355 83.82789999713108 C 0.0 **** -0.24
6677 H 23.25010335490643 -0.8643135066675995 83.89585547169195 H 0.0 **** 0.06
6678 H 21.697752922042667 -0.17552806583728398 83.36323085532926 H 0.0 **** 0.06
6679 H 23.192053268140256 0.7825244285839403 83.22542943772392 H 0.0 **** 0.06
6680 H 22.49369654708923 0.44948225984393275 84.82761916075516 H 0.0 **** 0.06
6681 C 46.716640945232314 63.6801042821791 11.042213393966549 C 0.0 **** -0.24
6682 H 46.94844363601068 63.73597838019879 9.9788197497125 H 0.0 **** 0.06
6683 H 45.79582025981065 64.22856398290236 11.243493683254059 H 0.0 **** 0.06
6684 H 47.5344308432207 64.11892244172194 11.61476106359872 H 0.0 **** 0.06
6685 H 46.59006802137827 62.63720048825054 11.332100301024866 H 0.0 **** 0.06
6686 C 109.60233255905763 120.27083629180387 89.47613328731273 C 0.0 **** -0.24
6687 H 109.14455895717725 120.96683506025167 88.77342602628315 H 0.0 **** 0.06
6688 H 108.9779277067093 119.38139513618876 89.56419301967313 H 0.0 **** 0.06
6689 H 109.69494742524142 120.74811003222396 90.45137925509167 H 0.0 **** 0.06
6690 H 110.59112338085149 119.98710192266037 89.11490756648567 H 0.0 **** 0.06
6691 C 14.216793863385647 86.17924305694086 42.67451725821141 C 0.0 **** -0.24
6692 H 13.853839238155189 85.4006160586398 43.34475628842446 H 0.0 **** 0.06
6693 H 13.48027078445918 86.35787225490242 41.8909428532578 H 0.0 **** 0.06
6694 H 15.157473687344208 85.8605332912372 42.22327216501071 H 0.0 **** 0.06
6695 H 14.37850403074006 87.09818308433256 43.238415781297334 H 0.0 **** 0.06
6696 C 16.384334471648486 0.3078303765333885 68.87966989433693 C 0.0 **** -0.24
6697 H 15.760394015794589 -0.47133574415914836 69.3189112886684 H 0.0 **** 0.06
6698 H 16.383706572121582 0.20312147034206873 67.79452744170078 H 0.0 **** 0.06
6699 H 17.40303767349745 0.21182146141040903 69.25449586587388 H 0.0 **** 0.06
6700 H 15.987166216692373 1.2864967904975515 69.15018224328583 H 0.0 **** 0.06
6701 C 119.03623925840273 0.33454687567757446 35.573905838333616 C 0.0 **** -0.24
6702 H 118.35908914371524 1.1871813694188518 35.52915565007379 H 0.0 **** 0.06
6703 H 119.64602495565725 0.30712175880461245 34.67082791358695 H 0.0 **** 0.06
6704 H 118.45682309199114 -0.5857249584725537 35.6490865320028 H 0.0 **** 0.06
6705 H 119.68209432026018 0.4292609444070763 36.446701886124885 H 0.0 **** 0.06
6706 C 50.93312027231971 47.0639559126019 64.96078103106579 C 0.0 **** -0.24
6707 H 51.67490393965599 46.58905866044023 64.3177319455113 H 0.0 **** 0.06
6708 H 51.15811855735896 46.83695704145691 66.00300834312002 H 0.0 **** 0.06
6709 H 49.94160485446454 46.68488655291645 64.71105693243807 H 0.0 **** 0.06
6710 H 50.959040610369044 48.1426848250664 64.80918454439579 H 0.0 **** 0.06
6711 C 25.689640974588116 92.49329898215319 46.861265194385986 C 0.0 **** -0.24
6712 H 25.452937310422897 91.42836931086347 46.8653582536263 H 0.0 **** 0.06
6713 H 25.907782948213224 92.8203742050316 47.877857218333126 H 0.0 **** 0.06
6714 H 24.837670292994204 93.05214933002765 46.47417901470873 H 0.0 **** 0.06
6715 H 26.557738299282818 92.66947751889094 46.227370459041424 H 0.0 **** 0.06
6716 C 51.211498036111095 117.71098956358765 88.77676319489507 C 0.0 **** -0.24
6717 H 52.23062408176855 117.67417578788297 89.16194150641883 H 0.0 **** 0.06
6718 H 51.0084161619709 118.70810797903073 88.38372605687312 H 0.0 **** 0.06
6719 H 50.5116741598722 117.48721806310527 89.58099527851817 H 0.0 **** 0.06
6720 H 51.097464705872255 116.97648717895686 87.98008379546786 H 0.0 **** 0.06
6721 C 21.328267891985703 41.198147233477414 62.032279096558256 C 0.0 **** -0.24
6722 H 21.494384504848114 41.404665206915865 60.97486192131291 H 0.0 **** 0.06
6723 H 22.27364209387543 41.27454661983944 62.56996976428019 H 0.0 **** 0.06
6724 H 20.926064417167495 40.19166777546957 62.145993266988825 H 0.0 **** 0.06
6725 H 20.61990323262536 41.92093594806113 62.43640707220072 H 0.0 **** 0.06
6726 C 96.10963652873289 9.51821600486278 39.73490182129487 C 0.0 **** -0.24
6727 H 96.16353377056973 10.423866698879607 39.13064824492051 H 0.0 **** 0.06
6728 H 95.51009911842044 9.71055329915886 40.625417292392655 H 0.0 **** 0.06
6729 H 97.11501143784747 9.218476655765613 40.03072454880353 H 0.0 **** 0.06
6730 H 95.6491146228802 8.720417501443833 39.15239553018847 H 0.0 **** 0.06
6731 C 59.12685271763101 113.25962076791718 96.85094026915276 C 0.0 **** -0.24
6732 H 59.55713547384511 112.25830782088897 96.82707366517978 H 0.0 **** 0.06
6733 H 58.10234288889913 113.22390104259155 96.48159065473145 H 0.0 **** 0.06
6734 H 59.71872503712666 113.92309899525613 96.22119808988552 H 0.0 **** 0.06
6735 H 59.131851379809206 113.6326036914901 97.87581796956697 H 0.0 **** 0.06
6736 C 10.114675861404066 62.8088744077956 85.48076838948572 C 0.0 **** -0.24
6737 H 10.121404848650513 63.27371503402725 86.46615071453766 H 0.0 **** 0.06
6738 H 11.13181548097134 62.530760416357396 85.20375737406661 H 0.0 **** 0.06
6739 H 9.71899931360258 63.51441576006738 84.74911134746844 H 0.0 **** 0.06
6740 H 9.486350146173095 61.918378816710174 85.50269727690733 H 0.0 **** 0.06
6741 C 5.781828222354875 103.29931174971463 72.48357858075488 C 0.0 **** -0.24
6742 H 6.136606896344105 104.3273927269409 72.55975006741889 H 0.0 **** 0.06
6743 H 6.634880144359073 102.62635572770361 72.38871993692811 H 0.0 **** 0.06
6744 H 5.1405946727307 103.19997415438746 71.60744897997753 H 0.0 **** 0.06
6745 H 5.215508564443908 103.04367843322346 73.37934369634044 H 0.0 **** 0.06
6746 C 73.6197776064459 62.56520875407385 105.85870894444705 C 0.0 **** -0.24
6747 H 73.82155709472505 63.62251131199207 106.02979896776921 H 0.0 **** 0.06
6748 H 72.68208151791629 62.2914937734335 106.34242645366132 H 0.0 **** 0.06
6749 H 74.43099855504573 61.968338632320524 106.2746092395015 H 0.0 **** 0.06
6750 H 73.54386184166617 62.37923950737981 104.78696841874284 H 0.0 **** 0.06
6751 C 16.64847316754694 100.45211691256543 89.17095418891405 C 0.0 **** -0.24
6752 H 16.043910529851587 99.60392268355332 89.4935422953584 H 0.0 **** 0.06
6753 H 16.27997164838851 100.81492272364233 88.21097914121246 H 0.0 **** 0.06
6754 H 17.687354043795693 100.13940245520337 89.06722064940686 H 0.0 **** 0.06
6755 H 16.58024669063147 101.24905722179165 89.91071746211742 H 0.0 **** 0.06
6756 C 0.915120864125015 81.5259277768218 18.303701461784186 C 0.0 **** -0.24
6757 H 1.1871868379421358 80.61516539998972 17.770222812943615 H 0.0 **** 0.06
6758 H 1.5932371648656272 82.32994655372556 18.01804511811568 H 0.0 **** 0.06
6759 H 0.9879681831341713 81.35289308466268 19.37744618803808 H 0.0 **** 0.06
6760 H -0.10732076395186141 81.80444360006253 18.04884559618037 H 0.0 **** 0.06
6761 C 72.50488519587765 29.942380564479436 60.32940987153586 C 0.0 **** -0.24
6762 H 71.87767672694508 29.05329038633829 60.27162050025677 H 0.0 **** 0.06
6763 H 73.07811351779435 29.923153415485615 61.25724777481037 H 0.0 **** 0.06
6764 H 71.87586116681018 30.832261319871748 60.309373061797515 H 0.0 **** 0.06
6765 H 73.18851047358504 29.96101812290027 59.48015570658801 H 0.0 **** 0.06
6766 C 104.00521902333367 50.05845879918985 124.17624628569018 C 0.0 **** -0.24
6767 H 104.38548008941086 49.257303583607936 124.81162367474191 H 0.0 **** 0.06
6768 H 102.94438645389795 49.89659081959097 123.98463862296623 H 0.0 **** 0.06
6769 H 104.54934968033359 50.062852130507096 123.2316940075507 H 0.0 **** 0.06
6770 H 104.1420962358942 51.01573055359164 124.6787508720468 H 0.0 **** 0.06
6771 C 88.4077938998675 130.68945292763186 48.65741599354709 C 0.0 **** -0.24
6772 H 88.38989133379155 131.10216524246016 47.648238324203675 H 0.0 **** 0.06
6773 H 87.43247804041613 130.26399374341804 48.89342853233441 H 0.0 **** 0.06
6774 H 88.64180585950089 131.48158291472208 49.36909990569366 H 0.0 **** 0.06
6775 H 89.16859090091054 129.9108426010933 48.717202122741256 H 0.0 **** 0.06
6776 C 14.057466688902025 42.342982041779806 2.6958644053185026 C 0.0 **** -0.24
6777 H 14.327126256574218 41.348350266549005 2.3396006471952546 H 0.0 **** 0.06
6778 H 14.560345486785053 43.09506557970269 2.087175003750758 H 0.0 **** 0.06
6779 H 14.365985305263791 42.451169107681494 3.736014553534119 H 0.0 **** 0.06
6780 H 12.979017110336741 42.47532106966372 2.6203312638874934 H 0.0 **** 0.06
6781 C 91.65588231570244 2.960162641802526 30.744581703813395 C 0.0 **** -0.24
6782 H 90.61081455016797 3.243433803685434 30.871496269960318 H 0.0 **** 0.06
6783 H 91.78462069782789 2.4719106733750777 29.778072536784663 H 0.0 **** 0.06
6784 H 91.94463683884064 2.2731936833171176 31.54078206098842 H 0.0 **** 0.06
6785 H 92.28133811140549 3.8517929624083536 30.788614540005966 H 0.0 **** 0.06
6786 C 51.873433726420345 13.570732673143766 86.58630312349985 C 0.0 **** -0.24
6787 H 52.31747389027956 13.814760108752779 87.55146343234028 H 0.0 **** 0.06
6788 H 50.962272737859095 14.15336606133684 86.44770477810633 H 0.0 **** 0.06
6789 H 51.634728519112855 12.50753406922314 86.5546007954068 H 0.0 **** 0.06
6790 H 52.58062251170003 13.807593958126631 85.79124763099011 H 0.0 **** 0.06
6791 C 32.471071619605134 112.18555592829978 20.172369260236565 C 0.0 **** -0.24
6792 H 33.2823223207631 112.05466020625761 19.45538240663734 H 0.0 **** 0.06
6793 H 32.22102670569805 113.24464052852039 20.2473153421966 H 0.0 **** 0.06
6794 H 32.78626496623819 111.81602281127749 21.148285707056743 H 0.0 **** 0.06
6795 H 31.59722153443097 111.62738659054713 19.836428068560906 H 0.0 **** 0.06
6796 C 39.76517616567634 91.35350733679601 11.31466873358896 C 0.0 **** -0.24
6797 H 39.67946391112184 90.29162235190608 11.543747584525931 H 0.0 **** 0.06
6798 H 40.066154078282125 91.89487925640935 12.211687809356263 H 0.0 **** 0.06
6799 H 38.802103997545316 91.72845445077459 10.969252909768542 H 0.0 **** 0.06
6800 H 40.51226167736712 91.49709660613291 10.535240913545437 H 0.0 **** 0.06
6801 C 92.65634566044002 4.726300921600327 87.0200829122781 C 0.0 **** -0.24
6802 H 92.45510236845058 5.723162856149983 87.41365494901106 H 0.0 **** 0.06
6803 H 91.7182941037816 4.257494491185298 86.72308919584549 H 0.0 **** 0.06
6804 H 93.13643190040676 4.122450766772488 87.79068962774136 H 0.0 **** 0.06
6805 H 93.31530441498086 4.8027956623977275 86.1558044123044 H 0.0 **** 0.06
6806 C 104.74947706319246 17.97264224092538 17.87461992349583 C 0.0 **** -0.24
6807 H 105.05441782091238 16.929455104190524 17.96213703955177 H 0.0 **** 0.06
6808 H 103.749302798768 18.093890131290088 18.29226443308483 H 0.0 **** 0.06
6809 H 104.74278739453895 18.26161216455199 16.823860162371375 H 0.0 **** 0.06
6810 H 105.45048214533936 18.60294397887192 18.421238646918198 H 0.0 **** 0.06
6811 C 8.646831072808482 8.229060232961729 84.25016698934678 C 0.0 **** -0.24
6812 H 8.43910161208035 8.04431210260509 85.30367257369568 H 0.0 **** 0.06
6813 H 8.3575600808812 9.249765271158253 83.99692782518359 H 0.0 **** 0.06
6814 H 8.078627944539647 7.527776370447896 83.63904865399344 H 0.0 **** 0.06
6815 H 9.711881461055015 8.096345622062245 84.06139479066566 H 0.0 **** 0.06
6816 C 130.6561070089273 31.01392579371995 11.264636168618907 C 0.0 **** -0.24
6817 H 131.08854942638206 31.46215921530265 12.158775299828719 H 0.0 **** 0.06
6818 H 131.4514557032928 30.76808984590042 10.560659863281359 H 0.0 **** 0.06
6819 H 129.96661743725642 31.71986939674852 10.801936249600018 H 0.0 **** 0.06
6820 H 130.1178054687783 30.105584716928348 11.53717326176556 H 0.0 **** 0.06
6821 C 8.608994616089106 97.73712366396333 50.577383280514965 C 0.0 **** -0.24
6822 H 8.860587566799566 98.25873764184794 49.65334411582636 H 0.0 **** 0.06
6823 H 9.249710909036992 98.09605756076482 51.38294306670136 H 0.0 **** 0.06
6824 H 8.761289832661184 96.66587155250201 50.44164599114005 H 0.0 **** 0.06
6825 H 7.565548242849886 97.92583692517647 50.829213430788116 H 0.0 **** 0.06
6826 C 108.14695086573386 23.45143712369793 29.95701705927482 C 0.0 **** -0.24
6827 H 108.18507701432952 23.365399891537805 31.04311212005203 H 0.0 **** 0.06
6828 H 108.91838552854756 24.14553965310313 29.62115578092724 H 0.0 **** 0.06
6829 H 107.16694730306244 23.823649079873178 29.65608546381236 H 0.0 **** 0.06
6830 H 108.31708570190892 22.47279816553589 29.509205327504162 H 0.0 **** 0.06
6831 C 101.92964266511595 102.62882974058829 74.05299617770669 C 0.0 **** -0.24
6832 H 101.26549598955003 102.73633640422094 74.91042487162474 H 0.0 **** 0.06
6833 H 102.477262572461 103.5594021606001 73.89913273983018 H 0.0 **** 0.06
6834 H 101.34094764448753 102.40173950423292 73.1636437607466 H 0.0 **** 0.06
6835 H 102.6340281725268 101.81823312721995 74.23840013912525 H 0.0 **** 0.06
6836 C 101.11897131061409 79.04716652542926 66.11198265002469 C 0.0 **** -0.24
6837 H 101.01780818706322 79.46682523804385 67.1128113324592 H 0.0 **** 0.06
6838 H 101.74592032066919 78.15626884998017 66.15360911233874 H 0.0 **** 0.06
6839 H 101.5784639589244 79.78496482679081 65.45391907704267 H 0.0 **** 0.06
6840 H 100.13396743972166 78.78152548339487 65.72787629261771 H 0.0 **** 0.06
6841 C 93.18173715025274 115.17894632002384 105.48934687113783 C 0.0 **** -0.24
6842 H 92.82650479003308 116.12095475648323 105.07165973747485 H 0.0 **** 0.06
6843 H 94.15815305992768 114.94011945000142 105.06685519880912 H 0.0 **** 0.06
6844 H 92.47657522113192 114.38451916725074 105.24769102597128 H 0.0 **** 0.06
6845 H 93.26762171935914 115.27168366703523 106.57155759090668 H 0.0 **** 0.06
6846 C 85.9859316136644 98.58420351004881 61.941759365594066 C 0.0 **** -0.24
6847 H 85.43749880549132 98.3538249869448 61.02831277809389 H 0.0 **** 0.06
6848 H 86.74596379290718 99.33652320349924 61.72834264805181 H 0.0 **** 0.06
6849 H 86.46419753520583 97.67873482178427 62.31554358817198 H 0.0 **** 0.06
6850 H 85.29566256436067 98.96758810905231 62.69264371926863 H 0.0 **** 0.06
6851 C 119.77383125116836 58.683117657444654 16.879968081132773 C 0.0 **** -0.24
6852 H 120.7873721348924 58.945467251229246 16.575818339855402 H 0.0 **** 0.06
6853 H 119.81416630893472 57.91879868334759 17.655416986138647 H 0.0 **** 0.06
6854 H 119.22437925330581 58.30073640579566 16.01980789622229 H 0.0 **** 0.06
6855 H 119.27029693755401 59.56923384202928 17.266806275093387 H 0.0 **** 0.06
6856 C 68.33221622935389 10.262094818581886 74.53251116640625 C 0.0 **** -0.24
6857 H 68.34319932313332 9.234409870297554 74.89684005376924 H 0.0 **** 0.06
6858 H 67.5758200499539 10.363779104473792 73.75444717045748 H 0.0 **** 0.06
6859 H 69.31145735345217 10.512982776205376 74.12345911151012 H 0.0 **** 0.06
6860 H 68.10031550808523 10.936293495582731 75.3574079519296 H 0.0 **** 0.06
6861 C 114.48454677562127 2.12403748404725 99.66056593308869 C 0.0 **** -0.24
6862 H 114.49833541012926 1.852252997904003 98.60458743199646 H 0.0 **** 0.06
6863 H 114.76595471284706 1.2584431168473138 100.2605529764731 H 0.0 **** 0.06
6864 H 113.48320282465791 2.4504797733825257 99.93849776578104 H 0.0 **** 0.06
6865 H 115.19288810843754 2.933551382122168 99.8359491103483 H 0.0 **** 0.06
6866 C 110.04695905898032 122.17011412343143 15.150550448891181 C 0.0 **** -0.24
6867 H 111.05856953855508 121.93936700896893 15.485560175943647 H 0.0 **** 0.06
6868 H 109.33802390017601 121.5171761135363 15.661880569917344 H 0.0 **** 0.06
6869 H 109.97516037650195 122.01383345583614 14.074542209638935 H 0.0 **** 0.06
6870 H 109.81597004415087 123.20985347289707 15.383208254531723 H 0.0 **** 0.06
6871 C 114.57848188447252 91.26435925938198 23.47523696936156 C 0.0 **** -0.24
6872 H 114.45691916890326 90.53713884167797 22.67279793230921 H 0.0 **** 0.06
6873 H 115.108654790375 90.80044507172835 24.307839434925597 H 0.0 **** 0.06
6874 H 113.5984213500937 91.60270604201891 23.81080550984899 H 0.0 **** 0.06
6875 H 115.15202100622054 92.11606878018723 23.108816082092574 H 0.0 **** 0.06
6876 C 13.186928924552149 34.64336566822976 64.41472806460607 C 0.0 **** -0.24
6877 H 13.128155574416951 35.3168229518316 65.26927671890937 H 0.0 **** 0.06
6878 H 13.942946983814295 35.00576772964522 63.718618249939965 H 0.0 **** 0.06
6879 H 12.21975764542043 34.60545190031964 63.914781407397015 H 0.0 **** 0.06
6880 H 13.457598681779018 33.64428498651779 64.75731262640775 H 0.0 **** 0.06
6881 C 55.70276903882001 33.6046301215969 116.97213226778348 C 0.0 **** -0.24
6882 H 55.455601680064746 32.606153457009384 117.33065985673562 H 0.0 **** 0.06
6883 H 54.81629864484583 34.064071085223375 116.5352436165507 H 0.0 **** 0.06
6884 H 56.485971847641125 33.53485555144951 116.21604203342469 H 0.0 **** 0.06
6885 H 56.05534604746357 34.21317138767087 117.8047560955294 H 0.0 **** 0.06
6886 C 4.622256620497581 92.32064408068376 100.89828973824453 C 0.0 **** -0.24
6887 H 4.056698702925189 91.95404780894134 101.75468150610376 H 0.0 **** 0.06
6888 H 4.10882495732659 92.04361984452888 99.97751887996372 H 0.0 **** 0.06
6889 H 5.619605523504276 91.8788433176627 100.90621594728194 H 0.0 **** 0.06
6890 H 4.706394938691176 93.4054729593822 100.95593060582345 H 0.0 **** 0.06
6891 C 115.62014702675744 115.14490790887787 47.91240499965197 C 0.0 **** -0.24
6892 H 114.92512880810288 115.64722683025227 48.58528006120852 H 0.0 **** 0.06
6893 H 115.84718263779057 115.79917641992014 47.070984778629324 H 0.0 **** 0.06
6894 H 115.16700803501949 114.22401295435215 47.5444198840298 H 0.0 **** 0.06
6895 H 116.53902101371993 114.90824571682195 48.44902598662855 H 0.0 **** 0.06
6896 C 6.942039492783266 5.689394535080169 62.484476123932325 C 0.0 **** -0.24
6897 H 6.442389067836444 6.459759939762137 61.896892869749365 H 0.0 **** 0.06
6898 H 6.274435392299665 5.342483727954232 63.272280697983035 H 0.0 **** 0.06
6899 H 7.846190520615323 6.103861728947322 62.93036325414448 H 0.0 **** 0.06
6900 H 7.206884244793258 4.85389487362454 61.83610889037868 H 0.0 **** 0.06
6901 C 111.34876617219544 26.09460111433755 106.15787906900465 C 0.0 **** -0.24
6902 H 112.11285880467615 26.583773910063883 105.5544291137357 H 0.0 **** 0.06
6903 H 111.8218978363964 25.3911485983191 106.84288158425335 H 0.0 **** 0.06
6904 H 110.65897963434304 25.559060237182763 105.50477645111746 H 0.0 **** 0.06
6905 H 110.8001335875583 26.844672016496197 106.72730543330525 H 0.0 **** 0.06
6906 C 41.251610319677 63.309142069263544 112.88698285304294 C 0.0 **** -0.24
6907 H 41.17752233496308 62.811337282923034 111.91975336855866 H 0.0 **** 0.06
6908 H 40.28804444447663 63.258595619565824 113.39546924663561 H 0.0 **** 0.06
6909 H 41.53037673882177 64.35245896101685 112.73888957369353 H 0.0 **** 0.06
6910 H 42.00906173820943 62.81257855105116 113.49264235826699 H 0.0 **** 0.06
6911 C 84.4351988829043 20.258733491243937 75.02925887083734 C 0.0 **** -0.24
6912 H 84.32071579842744 19.223127872146847 75.35128551718404 H 0.0 **** 0.06
6913 H 84.92132662102227 20.283954565669816 74.05403008481267 H 0.0 **** 0.06
6914 H 85.04398768382322 20.79834519076519 75.75431945212387 H 0.0 **** 0.06
6915 H 83.4535037991738 20.727184896481603 74.9594053791059 H 0.0 **** 0.06
6916 C 130.0815223922139 50.91466446915932 86.8585841959329 C 0.0 **** -0.24
6917 H 130.69478653192454 50.01486451680066 86.91475050479892 H 0.0 **** 0.06
6918 H 129.24929215230463 50.74484527260515 86.17563930480517 H 0.0 **** 0.06
6919 H 130.68720601978848 51.74402249031387 86.49377730569279 H 0.0 **** 0.06
6920 H 129.69593546339127 51.154726571486364 87.84934368557319 H 0.0 **** 0.06
6921 C 129.50969623711592 64.5341049211013 120.34522190138354 C 0.0 **** -0.24
6922 H 129.866728952271 64.16292613950043 121.30563920474341 H 0.0 **** 0.06
6923 H 128.449048325491 64.77436212139503 120.4198875858432 H 0.0 **** 0.06
6924 H 129.6569544795799 63.76759685429779 119.58302443446924 H 0.0 **** 0.06
6925 H 130.06803243235547 65.42980936137212 120.07088491033022 H 0.0 **** 0.06
6926 C 103.66783518903154 118.74372012752951 87.28830399108153 C 0.0 **** -0.24
6927 H 104.1317082812173 118.76492182012146 88.27535404682587 H 0.0 **** 0.06
6928 H 102.83302243015282 119.44405872019189 87.26464021784622 H 0.0 **** 0.06
6929 H 103.30501204035863 117.73706713292216 87.07987030974175 H 0.0 **** 0.06
6930 H 104.4030353964404 119.02910296927365 86.53577241866063 H 0.0 **** 0.06
6931 C 112.18568042996147 99.0988467106773 117.12713886169882 C 0.0 **** -0.24
6932 H 111.89757678206426 100.04373192406288 117.58931606248869 H 0.0 **** 0.06
6933 H 111.48301898080838 98.31985089572828 117.42518072153685 H 0.0 **** 0.06
6934 H 113.19001074504321 98.82717122342375 117.4515560265339 H 0.0 **** 0.06
6935 H 112.17074786567618 99.20664378053354 116.04279700874963 H 0.0 **** 0.06
6936 C 57.653108855800795 33.469069908595756 122.11866522133226 C 0.0 **** -0.24
6937 H 56.5926402186288 33.650618593620976 121.94405476679466 H 0.0 **** 0.06
6938 H 57.930677470999555 32.50594883568439 121.68917134608623 H 0.0 **** 0.06
6939 H 57.847266819456905 33.45842856385798 123.19102798556757 H 0.0 **** 0.06
6940 H 58.23885265227524 34.259348264217934 121.64989154992358 H 0.0 **** 0.06
6941 C 69.85754530080632 19.338625020319476 65.3651805522963 C 0.0 **** -0.24
6942 H 70.81229689426719 19.53957585752471 65.85009350101376 H 0.0 **** 0.06
6943 H 69.71855619223328 20.032358721392058 64.53495639733575 H 0.0 **** 0.06
6944 H 69.0494586408675 19.46841725845136 66.085790330196 H 0.0 **** 0.06
6945 H 69.84845229414282 18.31571055326605 64.98913964297532 H 0.0 **** 0.06
6946 C 1.6626122234289014 73.98294181551955 8.93505992845138 C 0.0 **** -0.24
6947 H 2.0451632183449817 74.13785762236398 7.926252565751923 H 0.0 **** 0.06
6948 H 0.6203197287852902 73.66985596380198 8.88437451536106 H 0.0 **** 0.06
6949 H 1.7359115046586702 74.91349511961977 9.497782084753624 H 0.0 **** 0.06
6950 H 2.251451155277767 73.21057039088316 9.431324622299996 H 0.0 **** 0.06
6951 C 64.01396263791503 63.644811495779024 45.46016789767032 C 0.0 **** -0.24
6952 H 63.770282871049176 62.59890124120179 45.269719839601606 H 0.0 **** 0.06
6953 H 63.67828182151641 63.91859263208133 46.46008475084059 H 0.0 **** 0.06
6954 H 63.51412884846627 64.27336725367259 44.72287803965381 H 0.0 **** 0.06
6955 H 65.09259937554117 63.78493963682892 45.386639779294484 H 0.0 **** 0.06
6956 C 45.84670441774125 90.59349596583044 56.7246549151144 C 0.0 **** -0.24
6957 H 46.27760088737347 90.02311195647368 57.5480708704541 H 0.0 **** 0.06
6958 H 46.63860395016627 90.89194425062456 56.036633620053664 H 0.0 **** 0.06
6959 H 45.35304422226476 91.48231578258125 57.1177890181427 H 0.0 **** 0.06
6960 H 45.11962711045143 89.97711355723064 56.19735547273396 H 0.0 **** 0.06
6961 C 97.09150180559182 130.2365308707385 63.50604182582762 C 0.0 **** -0.24
6962 H 97.02109497823098 129.39044595897917 64.18915209091082 H 0.0 **** 0.06
6963 H 97.57458367613805 131.07286098226677 64.01258145217636 H 0.0 **** 0.06
6964 H 96.09163898469865 130.53172031830493 63.18806385203308 H 0.0 **** 0.06
6965 H 97.68001865588391 129.9507448080693 62.6340379665902 H 0.0 **** 0.06
6966 C 35.61465537661541 122.74890632298829 57.5633854541438 C 0.0 **** -0.24
6967 H 34.971185363547995 122.0039794882311 57.09573408992699 H 0.0 **** 0.06
6968 H 35.86049207264873 123.52420075962448 56.83726331398509 H 0.0 **** 0.06
6969 H 36.53093415708362 122.27032103187503 57.91006084115705 H 0.0 **** 0.06
6970 H 35.09636028646197 123.196048295125 58.411332207581495 H 0.0 **** 0.06
6971 C 47.95325858615999 53.02135690404796 118.72800652731374 C 0.0 **** -0.24
6972 H 48.59751376164982 53.70677503559733 118.17674546415023 H 0.0 **** 0.06
6973 H 47.14336292668605 52.68404088425757 118.08128063046397 H 0.0 **** 0.06
6974 H 47.53701925279458 53.53380290763616 119.59541323047995 H 0.0 **** 0.06
6975 H 48.53649678121889 52.161182828643916 119.05846424429913 H 0.0 **** 0.06
6976 C 13.012628482254115 95.03188795628347 87.73238489057246 C 0.0 **** -0.24
6977 H 13.423885607402951 94.99070847479211 86.7237956303982 H 0.0 **** 0.06
6978 H 12.654577444828703 94.04276216168648 88.01863497264118 H 0.0 **** 0.06
6979 H 12.185043586510233 95.74027535604492 87.75867105748297 H 0.0 **** 0.06
6980 H 13.788542931743734 95.3524136571584 88.42759889489287 H 0.0 **** 0.06
6981 C 49.741388975156696 10.355661650680503 78.59017068455034 C 0.0 **** -0.24
6982 H 50.54404159991252 9.649594338835442 78.8040613313076 H 0.0 **** 0.06
6983 H 48.791229377812456 9.936766324663324 78.9230775349939 H 0.0 **** 0.06
6984 H 49.69927513890032 10.54283074059984 77.51695232174777 H 0.0 **** 0.06
6985 H 49.92992192999617 11.291912181088435 79.11539323871628 H 0.0 **** 0.06
6986 C 43.79590158333895 58.37419221895979 80.36247572987537 C 0.0 **** -0.24
6987 H 44.83676740940636 58.59075565729364 80.12312232930935 H 0.0 **** 0.06
6988 H 43.531645351516914 58.8587765724089 81.30238749017349 H 0.0 **** 0.06
6989 H 43.662328180901476 57.296026354999256 80.45885554024721 H 0.0 **** 0.06
6990 H 43.15334810628104 58.750594940325286 79.56616076583475 H 0.0 **** 0.06
6991 C 79.87764098117378 43.14080300924746 73.70435338445576 C 0.0 **** -0.24
6992 H 78.95994400622692 43.68551518500044 73.48022745140906 H 0.0 **** 0.06
6993 H 80.63584962945129 43.83875541403836 74.06106141723981 H 0.0 **** 0.06
6994 H 80.23468765289445 42.64569360611904 72.80198718693465 H 0.0 **** 0.06
6995 H 79.67833602669057 42.39545919871074 74.47389322906534 H 0.0 **** 0.06
6996 C 118.3418813463957 44.484202221954945 65.31788380709904 C 0.0 **** -0.24
6997 H 119.00369512192975 43.7408543937577 65.7632005993356 H 0.0 **** 0.06
6998 H 118.92261646407867 45.360220936254194 65.02914101301815 H 0.0 **** 0.06
6999 H 117.58186618812083 44.773399708765226 66.04289289324298 H 0.0 **** 0.06
7000 H 117.8615245994423 44.0593257242476 64.43676190801641 H 0.0 **** 0.06
7001 C 65.51535256433596 123.33133478013647 19.815807801254067 C 0.0 **** -0.24
7002 H 64.57098886932147 123.45749623367249 20.344906039243796 H 0.0 **** 0.06
7003 H 66.25436675559644 124.02391339319684 20.221237789981615 H 0.0 **** 0.06
7004 H 65.36896029879296 123.53599137996929 18.755846773985184 H 0.0 **** 0.06
7005 H 65.86830983901825 122.30804393794261 19.942825395699543 H 0.0 **** 0.06
7006 C 32.62890604369369 33.231004418787364 57.44539597404764 C 0.0 **** -0.24
7007 H 32.633569413766736 33.45478909233843 56.37974640280774 H 0.0 **** 0.06
7008 H 31.914523898918844 32.43197429676013 57.64694636060224 H 0.0 **** 0.06
7009 H 32.34305155935607 34.12299534837443 58.00369868645444 H 0.0 **** 0.06
7010 H 33.625524827432685 32.9139056170423 57.754767754133894 H 0.0 **** 0.06
7011 C 38.02265388761789 5.69416988138596 14.909093961897895 C 0.0 **** -0.24
7012 H 38.77315982034647 5.0296536741396665 15.338176206291507 H 0.0 **** 0.06
7013 H 37.228825612445284 5.862017025565535 15.637804841110437 H 0.0 **** 0.06
7014 H 37.60334674344758 5.238098988343921 14.012838823831828 H 0.0 **** 0.06
7015 H 38.486318414949274 6.645778857727777 14.650321864094678 H 0.0 **** 0.06
7016 C 36.642916126763254 71.40510381597804 18.908254506272158 C 0.0 **** -0.24
7017 H 37.0095975635202 72.21437402695882 19.539644175934484 H 0.0 **** 0.06
7018 H 37.18997274333495 70.49040046534631 19.136542277205365 H 0.0 **** 0.06
7019 H 36.791644215276136 71.66700790139069 17.860167803389686 H 0.0 **** 0.06
7020 H 35.58057820342347 71.25105557781409 19.096325562106358 H 0.0 **** 0.06
7021 C 86.26203426644875 79.93747585668888 115.93265295463112 C 0.0 **** -0.24
7022 H 86.20389087235739 80.93783788596599 115.50387257070248 H 0.0 **** 0.06
7023 H 85.74315243788791 79.23232924042426 115.28253187009473 H 0.0 **** 0.06
7024 H 85.79389729375757 79.93661943216543 116.91727701533655 H 0.0 **** 0.06
7025 H 87.30797969758228 79.64251043357174 116.02706760191923 H 0.0 **** 0.06
7026 C 34.56551714422761 103.57905509950407 95.07990422172685 C 0.0 **** -0.24
7027 H 34.104364759282305 103.37438024723073 96.04607146834687 H 0.0 **** 0.06
7028 H 35.63934130724675 103.40035644890591 95.14538702047798 H 0.0 **** 0.06
7029 H 34.38589198812781 104.6179168253727 94.80396661714153 H 0.0 **** 0.06
7030 H 34.132408790316845 102.92169746007039 94.32541724048784 H 0.0 **** 0.06
7031 C 19.99615649865467 103.40502760302951 26.891033213296154 C 0.0 **** -0.24
7032 H 21.045835320630204 103.1259251384766 26.977338500468917 H 0.0 **** 0.06
7033 H 19.48584118903139 102.70069039247834 26.23333046642233 H 0.0 **** 0.06
7034 H 19.92110828362226 104.41016385570616 26.47678773459679 H 0.0 **** 0.06
7035 H 19.532697179532164 103.38282625416078 27.876788237438063 H 0.0 **** 0.06
7036 C 100.50062572591487 23.376680795986076 102.06782078544316 C 0.0 **** -0.24
7037 H 101.37549072715015 22.93019900838675 102.54124000243328 H 0.0 **** 0.06
7038 H 100.71378046945583 23.563651810194898 101.01515208765932 H 0.0 **** 0.06
7039 H 100.26069639097929 24.31764491272625 102.56309639021927 H 0.0 **** 0.06
7040 H 99.65470963308304 22.695716721424958 102.15197698355004 H 0.0 **** 0.06
7041 C 60.609694899374475 89.85342209266045 94.23741917711976 C 0.0 **** -0.24
7042 H 60.95459711485694 88.8255825290316 94.12275537108621 H 0.0 **** 0.06
7043 H 59.55770140864206 89.91661254788303 93.95745813495205 H 0.0 **** 0.06
7044 H 61.19749712849111 90.50742012426664 93.59315634661232 H 0.0 **** 0.06
7045 H 60.72850644913724 90.16361958982563 95.27505530693637 H 0.0 **** 0.06
7046 C 46.6545742204581 104.84178167429556 113.70619609343869 C 0.0 **** -0.24
7047 H 47.32130318951002 104.3925953054829 114.44258497398978 H 0.0 **** 0.06
7048 H 46.0555271331022 104.0613238548251 113.23642521332316 H 0.0 **** 0.06
7049 H 47.244180379417855 105.3548945830272 112.94724607926882 H 0.0 **** 0.06
7050 H 45.996814755420445 105.5570521231885 114.200574665454 H 0.0 **** 0.06
7051 C 75.99220240328715 49.572098831519995 96.38606801194868 C 0.0 **** -0.24
7052 H 76.53746303608123 50.42969713003244 96.7809243194113 H 0.0 **** 0.06
7053 H 76.41333652723844 48.654178268594364 96.79731418247582 H 0.0 **** 0.06
7054 H 76.07908823818083 49.55681551973878 95.29960045749755 H 0.0 **** 0.06
7055 H 74.94211968280614 49.648486460856134 96.66602981631655 H 0.0 **** 0.06
7056 C 33.085388364184894 115.30071884701279 109.91062169994208 C 0.0 **** -0.24
7057 H 33.52913386169817 115.51330749102489 108.93820180645085 H 0.0 **** 0.06
7058 H 33.611849363819005 115.8659667505693 110.6800527403474 H 0.0 **** 0.06
7059 H 33.167810273258056 114.23407181161137 110.12170996474043 H 0.0 **** 0.06
7060 H 32.03492640973258 115.58988789404992 109.90143681242262 H 0.0 **** 0.06
7061 C 30.861165920397696 60.083394010778704 24.67735270132286 C 0.0 **** -0.24
7062 H 30.74593219095277 61.013378420245886 24.118978491918142 H 0.0 **** 0.06
7063 H 30.814409262986317 59.239611947315495 23.989172423998298 H 0.0 **** 0.06
7064 H 30.05937607081296 59.99987269715086 25.410917755683244 H 0.0 **** 0.06
7065 H 31.82397712336308 60.083672342107775 25.18826754364224 H 0.0 **** 0.06
7066 C 108.12467857908202 118.49667792815353 102.13242486663339 C 0.0 **** -0.24
7067 H 109.19191412974241 118.5593993777303 101.92277348840086 H 0.0 **** 0.06
7068 H 107.94287250952677 117.70475464957534 102.85810418359091 H 0.0 **** 0.06
7069 H 107.58699665861836 118.27595383875791 101.21006348156865 H 0.0 **** 0.06
7070 H 107.7773137353595 119.4480256158555 102.5368006522522 H 0.0 **** 0.06
7071 C 75.35102855225759 8.59194130944374 80.73997635346865 C 0.0 **** -0.24
7072 H 74.48225355936498 9.228941312193655 80.56912680314315 H 0.0 **** 0.06
7073 H 75.8774048321416 8.435477971209025 79.79917476719396 H 0.0 **** 0.06
7074 H 75.02376964071703 7.631331279091512 81.13912232270877 H 0.0 **** 0.06
7075 H 76.01862702382246 9.073788055773804 81.45505363939196 H 0.0 **** 0.06
7076 C 13.487927302937521 87.54640306931485 37.7541744085122 C 0.0 **** -0.24
7077 H 12.84546833487093 87.12079725882988 36.98301057039561 H 0.0 **** 0.06
7078 H 13.125707856806343 87.24283460576646 38.73698863121285 H 0.0 **** 0.06
7079 H 13.471267474508295 88.6336475251606 37.68089144190657 H 0.0 **** 0.06
7080 H 14.507912623944435 87.18874374315767 37.6158372001089 H 0.0 **** 0.06
7081 C 41.700088329124725 38.523496900562485 105.01582847048635 C 0.0 **** -0.24
7082 H 41.99569950589469 37.54544800489132 104.63609189992602 H 0.0 **** 0.06
7083 H 41.10805212987049 38.39642898236509 105.92312910986672 H 0.0 **** 0.06
7084 H 41.10541050787694 39.04152528642677 104.26400914308749 H 0.0 **** 0.06
7085 H 42.590084958123356 39.11012720207829 105.24264631695215 H 0.0 **** 0.06
7086 C 55.68131704705675 86.83004542743946 111.45986155514419 C 0.0 **** -0.24
7087 H 55.67068920661879 85.76402174778814 111.2356809161671 H 0.0 **** 0.06
7088 H 55.823916626743625 87.394545790963 110.53828292024906 H 0.0 **** 0.06
7089 H 56.49726966730324 87.04833212550365 112.14940615355897 H 0.0 **** 0.06
7090 H 54.73369020833508 87.11521595783682 111.9175499334782 H 0.0 **** 0.06
7091 C 93.76467309283902 70.3606247922693 26.243475239941624 C 0.0 **** -0.24
7092 H 93.00594861696067 71.10220586731029 26.493983049946245 H 0.0 **** 0.06
7093 H 94.56498509177955 70.83712116168172 25.67577419120999 H 0.0 **** 0.06
7094 H 93.31474576485692 69.5696519962969 25.6436195124044 H 0.0 **** 0.06
7095 H 94.17260055629657 69.93486692709214 27.15951608066942 H 0.0 **** 0.06
7096 C 43.94268387001995 95.7974378599192 9.202220131789986 C 0.0 **** -0.24
7097 H 44.78137055500957 95.40269804896522 8.629684076387335 H 0.0 **** 0.06
7098 H 43.66806456900747 96.77807734564956 8.814087568620195 H 0.0 **** 0.06
7099 H 44.229217689097425 95.8884782771672 10.25036016638387 H 0.0 **** 0.06
7100 H 43.09301264178248 95.11950408542302 9.115133233497318 H 0.0 **** 0.06
7101 C 51.07027064714762 101.65573434575204 94.25079396572191 C 0.0 **** -0.24
7102 H 51.17965671604739 100.94184080378984 95.06804989102237 H 0.0 **** 0.06
7103 H 51.654600050297574 102.55001241003535 94.46966017257448 H 0.0 **** 0.06
7104 H 50.01968366408735 101.92403802300387 94.1421911823742 H 0.0 **** 0.06
7105 H 51.42787073345713 101.20553867667631 93.32506264639795 H 0.0 **** 0.06
7106 C 69.31831539062712 56.47021207041195 92.42292986678049 C 0.0 **** -0.24
7107 H 68.53339119960226 57.19275145980919 92.19435505588785 H 0.0 **** 0.06
7108 H 69.79300886645692 56.73704249680122 93.36705066714597 H 0.0 **** 0.06
7109 H 70.06174050574943 56.478702850976816 91.62610400681197 H 0.0 **** 0.06
7110 H 68.88315117002563 55.47455772174814 92.50370696377252 H 0.0 **** 0.06
7111 C 86.52864594442909 39.92575058954833 45.67108353197024 C 0.0 **** -0.24
7112 H 85.46996196502671 39.95389841956006 45.413721168059325 H 0.0 **** 0.06
7113 H 86.75560085215464 38.98272822553338 46.16909939576688 H 0.0 **** 0.06
7114 H 86.76227491984422 40.755638246283866 46.33771718397084 H 0.0 **** 0.06
7115 H 87.12486329984733 40.010374519084905 44.76264579953241 H 0.0 **** 0.06
7116 C 75.07049842783007 107.5195453540498 10.28687941871192 C 0.0 **** -0.24
7117 H 74.81262649106816 107.07808971979256 11.250062948922448 H 0.0 **** 0.06
7118 H 74.36646481256687 107.17572600755648 9.529459215071483 H 0.0 **** 0.06
7119 H 76.07997800151409 107.21678119821968 10.008451091376003 H 0.0 **** 0.06
7120 H 75.02427073871125 108.60552755741503 10.361263988603923 H 0.0 **** 0.06
7121 C 26.91000417164878 56.58276149540549 10.29069338463023 C 0.0 **** -0.24
7122 H 27.3500812234289 57.455177694696374 10.77349212167735 H 0.0 **** 0.06
7123 H 26.033065037818176 56.88746871164598 9.719635830198627 H 0.0 **** 0.06
7124 H 26.61655732883986 55.857280257846114 11.049781274531199 H 0.0 **** 0.06
7125 H 27.64140535719673 56.130681192937274 9.621135209969793 H 0.0 **** 0.06
7126 C 116.88375789479035 8.288042894901466 115.20087334669573 C 0.0 **** -0.24
7127 H 117.35666615052877 9.264263355594142 115.31464481409718 H 0.0 **** 0.06
7128 H 116.00015453285687 8.384762815865667 114.56881013003256 H 0.0 **** 0.06
7129 H 116.59134302686749 7.9105932228084335 116.1806742209061 H 0.0 **** 0.06
7130 H 117.58724722846205 7.596271062160216 114.73920043897444 H 0.0 **** 0.06
7131 C 76.01821456950688 60.61415394179289 51.02872753243355 C 0.0 **** -0.24
7132 H 75.13226440091802 59.98192106270426 50.98496376099585 H 0.0 **** 0.06
7133 H 76.80591350286056 60.180765197131336 50.411523255478784 H 0.0 **** 0.06
7134 H 76.36194719733436 60.686059517702745 52.061021088515076 H 0.0 **** 0.06
7135 H 75.77185521744002 61.60977983790929 50.658164878904614 H 0.0 **** 0.06
7136 C 77.1409264355836 35.729827330558805 85.28248639720205 C 0.0 **** -0.24
7137 H 76.23191640351634 35.21343928430025 85.59012025182622 H 0.0 **** 0.06
7138 H 77.18636857658913 35.767706273492365 84.19399584655541 H 0.0 **** 0.06
7139 H 78.01032063731954 35.19281448305708 85.66437840204689 H 0.0 **** 0.06
7140 H 77.1367819560184 36.74366235992625 85.68202211885611 H 0.0 **** 0.06
7141 C 37.26516411315265 58.28288454965411 31.979517132961803 C 0.0 **** -0.24
7142 H 37.487026949458766 57.65068345460227 31.118531509303466 H 0.0 **** 0.06
7143 H 36.40327997614503 57.880493714824325 32.51161656758046 H 0.0 **** 0.06
7144 H 37.044525718246064 59.29431301724475 31.63978846720761 H 0.0 **** 0.06
7145 H 38.12765531704355 58.302913039144215 32.645936872716845 H 0.0 **** 0.06
7146 C 35.93481056152598 69.44407012270395 67.0050190287225 C 0.0 **** -0.24
7147 H 36.99629230996547 69.4967301176055 66.76444710073079 H 0.0 **** 0.06
7148 H 35.38346869257188 69.082745573138 66.13759634116118 H 0.0 **** 0.06
7149 H 35.5753693204592 70.43643826470637 67.27741935867246 H 0.0 **** 0.06
7150 H 35.78533772503829 68.76204121387153 67.84144586539017 H 0.0 **** 0.06
7151 C 71.05858915318997 92.27931879244483 97.41824111311344 C 0.0 **** -0.24
7152 H 70.32959099455836 92.24491732251437 96.60806474721312 H 0.0 **** 0.06
7153 H 70.94507242799448 93.21323910892937 97.96833041696736 H 0.0 **** 0.06
7154 H 72.06498767414546 92.22155641397825 97.00366543699825 H 0.0 **** 0.06
7155 H 70.89334544959551 91.43857042868183 98.09113346132533 H 0.0 **** 0.06
7156 C 72.21632874003902 25.75735918862108 82.75528740980035 C 0.0 **** -0.24
7157 H 72.45540124302019 26.702965002245207 82.26749388950071 H 0.0 **** 0.06
7158 H 72.79673323440954 24.955779025658103 82.29790752114249 H 0.0 **** 0.06
7159 H 71.15368474845297 25.547859292948203 82.64067106595401 H 0.0 **** 0.06
7160 H 72.46200490864166 25.824746773480342 83.81528628962366 H 0.0 **** 0.06
7161 C 93.62616197567189 79.30042781829553 86.57123458396558 C 0.0 **** -0.24
7162 H 93.68755366619563 79.81937696944152 87.5274287422508 H 0.0 **** 0.06
7163 H 94.12085062064341 78.33163621269568 86.65263200190392 H 0.0 **** 0.06
7164 H 94.11741494497815 79.89634924175198 85.80201117695981 H 0.0 **** 0.06
7165 H 92.5797918194178 79.15314314739493 86.30413875574195 H 0.0 **** 0.06
7166 C 22.727786320350397 31.330230951944714 115.26120410074577 C 0.0 **** -0.24
7167 H 23.5869669207017 31.998937089710523 115.21330585627334 H 0.0 **** 0.06
7168 H 21.92633605378309 31.724263962024736 114.63483198379907 H 0.0 **** 0.06
7169 H 22.380818661580953 31.257292156471124 116.29221616592423 H 0.0 **** 0.06
7170 H 23.01650785474125 30.342076363305694 114.9043024293519 H 0.0 **** 0.06
7171 C 6.89887125080736 75.8359125564456 101.97489751071822 C 0.0 **** -0.24
7172 H 6.741813158951146 76.82331414096342 102.40812873357879 H 0.0 **** 0.06
7173 H 6.597609333434292 75.84732916311577 100.9269893858683 H 0.0 **** 0.06
7174 H 6.302102994826754 75.10288493544692 102.51641255826308 H 0.0 **** 0.06
7175 H 7.953789768101558 75.57091678239979 102.0469019557134 H 0.0 **** 0.06
7176 C 24.495011666855902 14.355159687402683 44.24463352759162 C 0.0 **** -0.24
7177 H 23.599941970204355 14.945587063413157 44.053287964871885 H 0.0 **** 0.06
7178 H 24.373810698068624 13.361403819835495 43.812508407785316 H 0.0 **** 0.06
7179 H 24.649587064035032 14.266805346918982 45.31968114932269 H 0.0 **** 0.06
7180 H 25.35820952585246 14.845291967361213 43.79247496216175 H 0.0 **** 0.06
7181 C 123.16773669105258 44.4228409135022 121.80184483673445 C 0.0 **** -0.24
7182 H 123.14118167133155 44.03310628284609 122.81950795670207 H 0.0 **** 0.06
7183 H 123.92580281345995 45.203087744652606 121.73194405544888 H 0.0 **** 0.06
7184 H 122.19371175518165 44.83796898108291 121.5458282407436 H 0.0 **** 0.06
7185 H 123.4128125521966 43.61531142280734 121.11103047262831 H 0.0 **** 0.06
7186 C 80.16363834169323 109.10093656080059 87.9191045879574 C 0.0 **** -0.24
7187 H 79.77325433792157 110.11195581431153 87.80629580031373 H 0.0 **** 0.06
7188 H 80.98052059488907 109.10579901796595 88.64056782007711 H 0.0 **** 0.06
7189 H 80.52953625887255 108.7432844018889 86.95726673707196 H 0.0 **** 0.06
7190 H 79.37009859264191 108.44306349781371 88.27303982335974 H 0.0 **** 0.06
7191 C 75.75798554555618 91.83789676165642 19.79585258236481 C 0.0 **** -0.24
7192 H 75.29489578870786 90.91439969822889 19.44892103888114 H 0.0 **** 0.06
7193 H 76.81447501684696 91.83757317141058 19.52743803661506 H 0.0 **** 0.06
7194 H 75.65787139281653 91.90957572091767 20.879416986695162 H 0.0 **** 0.06
7195 H 75.2634488084777 92.69023200743752 19.328264513208303 H 0.0 **** 0.06
7196 C 38.50490826399485 89.9799021969855 73.49353652763025 C 0.0 **** -0.24
7197 H 39.232998174110804 89.18092882298328 73.35382577672199 H 0.0 **** 0.06
7198 H 37.56763993000283 89.55747549755813 73.85822725248262 H 0.0 **** 0.06
7199 H 38.33074175312282 90.48286098056292 72.54188165032608 H 0.0 **** 0.06
7200 H 38.886739633700074 90.69743683168389 74.21926945376708 H 0.0 **** 0.06
7201 C 53.360780313117544 35.337344031262965 78.97598906411119 C 0.0 **** -0.24
7202 H 52.80320593861484 34.92857690862765 78.13304911976223 H 0.0 **** 0.06
7203 H 54.233766958508454 35.87598187371828 78.60754496406307 H 0.0 **** 0.06
7204 H 53.68379077265034 34.52390558290817 79.62672071379748 H 0.0 **** 0.06
7205 H 52.721409150642316 36.01937203667786 79.53749583177913 H 0.0 **** 0.06
7206 C 96.18721058185969 129.29147839571885 49.23605221597367 C 0.0 **** -0.24
7207 H 96.10918969815478 129.0036947440854 48.18751189977512 H 0.0 **** 0.06
7208 H 95.3673141482166 128.84266763906362 49.79711748152785 H 0.0 **** 0.06
7209 H 96.13394108384482 130.37648279296718 49.319504169471585 H 0.0 **** 0.06
7210 H 97.13782070004952 128.9420153199208 49.638826875564675 H 0.0 **** 0.06
7211 C 92.27588074608659 82.20928063593198 49.42923666607078 C 0.0 **** -0.24
7212 H 91.78005148331604 82.09223310586464 48.46607383524042 H 0.0 **** 0.06
7213 H 92.40576666920671 81.23052978624196 49.89178280251974 H 0.0 **** 0.06
7214 H 91.66750459421326 82.84043698511033 50.07728034460308 H 0.0 **** 0.06
7215 H 93.25143018563284 82.67330867920339 49.281477478146826 H 0.0 **** 0.06
7216 C 127.42374433169718 32.708752877941805 32.55161245074317 C 0.0 **** -0.24
7217 H 126.52690107085064 33.14417819114223 32.11117923143378 H 0.0 **** 0.06
7218 H 128.2912373470759 32.97208719304197 31.94552133564511 H 0.0 **** 0.06
7219 H 127.32133042550504 31.624334386305293 32.58778394962281 H 0.0 **** 0.06
7220 H 127.55614890281032 33.0951115682162 33.56228176870252 H 0.0 **** 0.06
7221 C 8.942099357848406 120.34111761565904 70.1082414091448 C 0.0 **** -0.24
7222 H 9.137394314873575 121.32095739774178 70.54603296996899 H 0.0 **** 0.06
7223 H 9.71676712999971 120.10925227567702 69.37738453387021 H 0.0 **** 0.06
7224 H 7.969810409611057 120.35039052952503 69.61680207508016 H 0.0 **** 0.06
7225 H 8.945388583355907 119.58585619936206 70.89380860079154 H 0.0 **** 0.06
7226 C 64.64975312015977 127.0279069276754 123.34390983182429 C 0.0 **** -0.24
7227 H 64.23082052665 126.14430990752311 123.82710166573884 H 0.0 **** 0.06
7228 H 65.66976221283839 126.81613754894707 123.02102791857256 H 0.0 **** 0.06
7229 H 64.65613258721167 127.85833346791503 124.05014460219796 H 0.0 **** 0.06
7230 H 64.04148486498418 127.29017014631589 122.47884038464969 H 0.0 **** 0.06
7231 C 119.59529780174455 76.5431335025587 1.501961230855187 C 0.0 **** -0.24
7232 H 120.58767261338447 76.88402440973636 1.207787708075415 H 0.0 **** 0.06
7233 H 119.23222241384624 75.81402282125879 0.7760972835705502 H 0.0 **** 0.06
7234 H 118.9144028571998 77.3933763886742 1.533497661714506 H 0.0 **** 0.06
7235 H 119.64670073131369 76.08147397785837 2.487663848989314 H 0.0 **** 0.06
7236 C 11.785233240807159 65.70526441620261 109.7522570208798 C 0.0 **** -0.24
7237 H 12.031514853670188 66.5704052399329 110.36706035220365 H 0.0 **** 0.06
7238 H 11.074529092014114 65.99916182562511 108.9798158273534 H 0.0 **** 0.06
7239 H 11.341562959531071 64.92967408552006 110.3775440436871 H 0.0 **** 0.06
7240 H 12.691751341201254 65.3212423453419 109.28504462733912 H 0.0 **** 0.06
7241 C 78.52183867881585 50.45618681740898 33.81104288955112 C 0.0 **** -0.24
7242 H 77.45390608600155 50.57866038945048 33.99652542418295 H 0.0 **** 0.06
7243 H 78.74226734206546 49.40292375621982 33.641612912234734 H 0.0 **** 0.06
7244 H 79.08249108325612 50.81186221604638 34.675248500868236 H 0.0 **** 0.06
7245 H 78.80541917562113 51.0341247328669 32.9313569528951 H 0.0 **** 0.06
7246 C 113.2432881492046 13.751402085986456 40.462338747159606 C 0.0 **** -0.24
7247 H 113.69932221666772 13.180347407479104 39.65380183623137 H 0.0 **** 0.06
7248 H 112.87625519134554 14.701344732155661 40.073024891501575 H 0.0 **** 0.06
7249 H 113.98523776041111 13.938999528259359 41.238422142999866 H 0.0 **** 0.06
7250 H 112.41198955574953 13.186009746376925 40.883278897387555 H 0.0 **** 0.06
7251 C 42.30272998483534 89.0684645102663 15.538904895294365 C 0.0 **** -0.24
7252 H 42.37595128491972 87.98151719427369 15.590097841652469 H 0.0 **** 0.06
7253 H 42.1527647734589 89.3735461123964 14.503257212616862 H 0.0 **** 0.06
7254 H 43.222474144484465 89.51305399298383 15.919822701426359 H 0.0 **** 0.06
7255 H 41.45889918925016 89.40348506209925 16.142913458642912 H 0.0 **** 0.06
7256 C 20.626118887969483 17.776735959375458 55.142488326855826 C 0.0 **** -0.24
7257 H 20.56726261029422 17.01866526137914 55.9234302066659 H 0.0 **** 0.06
7258 H 21.420563465262376 17.516382643696517 54.442860960915596 H 0.0 **** 0.06
7259 H 20.842087010476178 18.74604276333187 55.592290041888674 H 0.0 **** 0.06
7260 H 19.67628569070149 17.82594042438413 54.61152392171941 H 0.0 **** 0.06
7261 C 111.99637734033527 94.48111182843648 29.626082187316996 C 0.0 **** -0.24
7262 H 110.94649685642659 94.60862148958599 29.890040005711853 H 0.0 **** 0.06
7263 H 112.10312802454061 93.62040874112087 28.966439925532057 H 0.0 **** 0.06
7264 H 112.58219720496234 94.32120792675964 30.53070378870109 H 0.0 **** 0.06
7265 H 112.3529746026517 95.37733712996592 29.115837914353563 H 0.0 **** 0.06
7266 C 21.27474155687503 1.539073900133161 8.56964602075183 C 0.0 **** -0.24
7267 H 20.290032975825056 1.4741092727090148 8.105651261571264 H 0.0 **** 0.06
7268 H 22.012518829636633 1.0609879354686882 7.925042272522752 H 0.0 **** 0.06
7269 H 21.254738137028085 1.033653735348551 9.536066677548348 H 0.0 **** 0.06
7270 H 21.54005667882774 2.585921903328977 8.712686357313604 H 0.0 **** 0.06
7271 C 81.10031118787748 39.62161326133247 47.18568360994793 C 0.0 **** -0.24
7272 H 81.29489447381059 40.245117757473 48.05861544423939 H 0.0 **** 0.06
7273 H 80.15609605184329 39.09425767285052 47.31891382548149 H 0.0 **** 0.06
7274 H 81.90794009554423 38.89782632182738 47.069547619711926 H 0.0 **** 0.06
7275 H 81.0439390687365 40.249101819058296 46.296238412175285 H 0.0 **** 0.06
7276 C 77.91371616612861 6.8489554209867975 75.12066565634626 C 0.0 **** -0.24
7277 H 77.96855795796571 7.823364728842453 75.60522246629574 H 0.0 **** 0.06
7278 H 78.92122661060998 6.48701977692064 74.9167692658323 H 0.0 **** 0.06
7279 H 77.36283418654338 6.938916276424784 74.18410567822822 H 0.0 **** 0.06
7280 H 77.40023432026666 6.145649348907423 75.77700587878778 H 0.0 **** 0.06
7281 C 82.90911820946397 69.22741655941061 3.9778969831856585 C 0.0 **** -0.24
7282 H 83.06256229857563 70.30443007765496 4.053058951180361 H 0.0 **** 0.06
7283 H 83.71646462871769 68.78548363431607 3.39462391254537 H 0.0 **** 0.06
7284 H 81.9556374580663 69.03083627351798 3.4871769570738422 H 0.0 **** 0.06
7285 H 82.90001404425281 68.79169803706709 4.976933993438024 H 0.0 **** 0.06
7286 C 92.58408014470606 68.48316889702986 49.76724259076158 C 0.0 **** -0.24
7287 H 93.14927380577579 67.62495352377897 49.40471268957239 H 0.0 **** 0.06
7288 H 91.53550950280523 68.20692680280251 49.87954754111891 H 0.0 **** 0.06
7289 H 92.66886695546091 69.30265398287871 49.05301860428855 H 0.0 **** 0.06
7290 H 92.98249420902017 68.79985356256083 50.731498555404045 H 0.0 **** 0.06
7291 C 35.57195590390578 14.52063443716083 39.412834420760305 C 0.0 **** -0.24
7292 H 34.57884115947083 14.301964852778479 39.80598352487624 H 0.0 **** 0.06
7293 H 35.863297521497365 13.740647403904362 38.70919831163491 H 0.0 **** 0.06
7294 H 36.28706021034832 14.55669512657106 40.23400606263198 H 0.0 **** 0.06
7295 H 35.55547292584862 15.483269420384065 38.90189443966085 H 0.0 **** 0.06
7296 C 47.8414230684898 119.90586988222012 121.75448914935501 C 0.0 **** -0.24
7297 H 47.27049350989404 119.9997263276648 120.82996388981206 H 0.0 **** 0.06
7298 H 47.90483000276754 118.8552614436586 122.03670520549886 H 0.0 **** 0.06
7299 H 47.34479629782726 120.46662781957264 122.54610385096868 H 0.0 **** 0.06
7300 H 48.84548349149378 120.30355333298758 121.6019995098359 H 0.0 **** 0.06
7301 C 104.45150778821292 99.67335827212719 48.2845810481472 C 0.0 **** -0.24
7302 H 103.6868162506133 100.3447077391757 47.89404653207765 H 0.0 **** 0.06
7303 H 103.9930957100953 98.7254534386309 48.56683674046238 H 0.0 **** 0.06
7304 H 104.91950629619298 100.12566209135548 49.15929137494723 H 0.0 **** 0.06
7305 H 105.20706273939966 99.49847067283503 47.51838751167949 H 0.0 **** 0.06
7306 C 65.09427688418971 3.6179766027768387 22.133074455293468 C 0.0 **** -0.24
7307 H 66.16153182095903 3.4192578480141123 22.224524758776397 H 0.0 **** 0.06
7308 H 64.64607122756755 2.8879981123281517 21.45763854640387 H 0.0 **** 0.06
7309 H 64.94372203596923 4.621729052446806 21.7359917012368 H 0.0 **** 0.06
7310 H 64.62502209614414 3.541094087288382 23.11443094106636 H 0.0 **** 0.06
7311 C 101.22214654566707 91.72258428534595 16.435344655712868 C 0.0 **** -0.24
7312 H 101.28797696123377 91.75095711089715 15.34699687361325 H 0.0 **** 0.06
7313 H 101.84199900279819 92.51332235136408 16.857341909192485 H 0.0 **** 0.06
7314 H 101.57295690209506 90.75452830522892 16.793763704141327 H 0.0 **** 0.06
7315 H 100.18590836531212 91.86905241134802 16.739840933762082 H 0.0 **** 0.06
7316 C 35.36840573333484 68.82172754436999 62.323311481597955 C 0.0 **** -0.24
7317 H 36.002306008571054 67.93640190470276 62.380271693166264 H 0.0 **** 0.06
7318 H 34.482883639529746 68.59611883334648 61.7279730254088 H 0.0 **** 0.06
7319 H 35.92366433000228 69.63572333956859 61.85678685125407 H 0.0 **** 0.06
7320 H 35.06541202269591 69.11655996528717 63.32782584512074 H 0.0 **** 0.06
7321 C 56.21876777953773 45.56165827473774 21.949405450141967 C 0.0 **** -0.24
7322 H 57.21211160095446 45.19214135460277 22.20490455606472 H 0.0 **** 0.06
7323 H 56.31063851324103 46.486079057195866 21.378435656596082 H 0.0 **** 0.06
7324 H 55.65682063330438 45.75361877180637 22.86426288477344 H 0.0 **** 0.06
7325 H 55.69579533713076 44.81513028050762 21.352427061277382 H 0.0 **** 0.06
7326 C 111.14317663821217 8.109526969635041 47.231177073987766 C 0.0 **** -0.24
7327 H 111.77168778415104 7.5224132037483535 47.89953890845871 H 0.0 **** 0.06
7328 H 110.75407036210808 7.467487126209736 46.440728066624246 H 0.0 **** 0.06
7329 H 111.73310030951312 8.913510009308432 46.79013416314277 H 0.0 **** 0.06
7330 H 110.3130878377871 8.535888700714207 47.79436418520413 H 0.0 **** 0.06
7331 C 57.69842334391842 3.497921167974283 84.50583509842406 C 0.0 **** -0.24
7332 H 57.78915542228353 2.991706748298764 85.46776660105436 H 0.0 **** 0.06
7333 H 56.995790705884886 4.325808992431146 84.59597136254641 H 0.0 **** 0.06
7334 H 57.33590094968346 2.7929957767865403 83.75795532747563 H 0.0 **** 0.06
7335 H 58.674153136685334 3.879763643103299 84.20372216833843 H 0.0 **** 0.06
7336 C 2.431803690493325 0.5491632400402864 102.5467086758027 C 0.0 **** -0.24
7337 H 2.6759753809157587 0.8376781999942295 101.52415168744152 H 0.0 **** 0.06
7338 H 2.944533025840883 -0.3809473979525819 102.79272355910015 H 0.0 **** 0.06
7339 H 1.3553667314457698 0.40763111130667085 102.63675605039325 H 0.0 **** 0.06
7340 H 2.7539482350646836 1.334379341735314 103.2315196738972 H 0.0 **** 0.06
7341 C 124.15069509173237 0.22156599803898303 17.871792229674433 C 0.0 **** -0.24
7342 H 124.97296724330249 -0.42865621101174156 17.573733446766127 H 0.0 **** 0.06
7343 H 124.43689912883296 0.7855551439655812 18.76064546356575 H 0.0 **** 0.06
7344 H 123.27111290407775 -0.38289005863151715 18.09299013296541 H 0.0 **** 0.06
7345 H 123.92288296880103 0.9128555941055936 17.060484769519583 H 0.0 **** 0.06
7346 C 95.64198467139649 4.037790344586455 13.606769247724714 C 0.0 **** -0.24
7347 H 95.69669464695025 3.512610355610093 12.653448608679895 H 0.0 **** 0.06
7348 H 94.68037215534082 4.546186465436733 13.687468138922895 H 0.0 **** 0.06
7349 H 96.44726622248719 4.771194876443673 13.66401408729618 H 0.0 **** 0.06
7350 H 95.74465085958542 3.321793006897366 14.42286666697089 H 0.0 **** 0.06
7351 C 78.63056108450608 48.18323674429777 117.52425313786144 C 0.0 **** -0.24
7352 H 79.68757709021959 48.02668456180305 117.73825318145587 H 0.0 **** 0.06
7353 H 78.34661272233369 47.599401051900045 116.64839372532163 H 0.0 **** 0.06
7354 H 78.45246560803083 49.24151121411289 117.33041124107548 H 0.0 **** 0.06
7355 H 78.03637064614036 47.86562726877568 118.38109992398775 H 0.0 **** 0.06
7356 C 77.54961058566589 112.17876402245997 129.79187031025344 C 0.0 **** -0.24
7357 H 78.02803451129068 111.84140208748693 128.87311143538744 H 0.0 **** 0.06
7358 H 77.84089204693133 111.52558112331923 130.61406776015133 H 0.0 **** 0.06
7359 H 76.4668459508462 112.15024345619133 129.67017073344437 H 0.0 **** 0.06
7360 H 77.86267291269226 113.20024877314899 130.01051480950244 H 0.0 **** 0.06
7361 C 12.613656953823991 44.71540190332675 127.96523080556128 C 0.0 **** -0.24
7362 H 13.198069917509411 44.92101000317129 127.06826242177021 H 0.0 **** 0.06
7363 H 13.172229610229305 44.0424822380069 128.61617182143524 H 0.0 **** 0.06
7364 H 11.668686303464966 44.25081574006916 127.68420123612574 H 0.0 **** 0.06
7365 H 12.41666463014155 45.64896726002942 128.49187128666273 H 0.0 **** 0.06
7366 C 123.56460070047632 47.308363752395984 118.54401663882788 C 0.0 **** -0.24
7367 H 123.5309666169469 47.74088521251708 119.54415584213118 H 0.0 **** 0.06
7368 H 123.72129565599269 46.23273587406696 118.61843955210821 H 0.0 **** 0.06
7369 H 124.38403306662747 47.75764461098264 117.9823469709307 H 0.0 **** 0.06
7370 H 122.62253568851813 47.50452327725568 118.03173210814649 H 0.0 **** 0.06
7371 C 83.60804967669225 85.0627516773464 3.42607059892174 C 0.0 **** -0.24
7372 H 83.62432672206884 84.12730071558477 3.9853916422920577 H 0.0 **** 0.06
7373 H 83.33257416142948 84.86147367940603 2.3906779698045 H 0.0 **** 0.06
7374 H 84.59627693284122 85.5211582720089 3.45677450368089 H 0.0 **** 0.06
7375 H 82.87926782461665 85.73872467235921 3.8720862148440744 H 0.0 **** 0.06
7376 C 42.300489476233764 7.579645672075603 3.3808495400047036 C 0.0 **** -0.24
7377 H 42.52272717379208 6.546956792292729 3.110663318901345 H 0.0 **** 0.06
7378 H 43.10739709631699 8.226765295898172 3.037017089879839 H 0.0 **** 0.06
7379 H 42.20577306235447 7.658631067420469 4.46411802484738 H 0.0 **** 0.06
7380 H 41.36503929862383 7.883679545662183 2.9122742732561164 H 0.0 **** 0.06
7381 C 42.69128392951268 18.136142012484356 12.724663834686083 C 0.0 **** -0.24
7382 H 42.08498475662515 18.50533982311751 11.898331164072346 H 0.0 **** 0.06
7383 H 42.16291028857404 18.29694251482914 13.664172718006 H 0.0 **** 0.06
7384 H 43.6410674478862 18.67216478364344 12.745216776355988 H 0.0 **** 0.06
7385 H 42.8781255575679 17.070697083556723 12.589572043792657 H 0.0 **** 0.06
7386 C 25.803105532266585 103.61668816348933 123.43660129012412 C 0.0 **** -0.24
7387 H 25.516267274797563 102.60570573152927 123.14722298078561 H 0.0 **** 0.06
7388 H 25.19920272662467 103.93667861566524 124.28659544558067 H 0.0 **** 0.06
7389 H 25.64131241721146 104.29441508078708 122.59840997514135 H 0.0 **** 0.06
7390 H 26.856796521388766 103.62893643077385 123.71579793007052 H 0.0 **** 0.06
7391 C 102.26003267198611 15.532308222766318 58.46730856919069 C 0.0 **** -0.24
7392 H 102.5449083978455 15.596943514514095 59.51794819796973 H 0.0 **** 0.06
7393 H 103.13066499280238 15.732448713122693 57.84252890184453 H 0.0 **** 0.06
7394 H 101.48330824131644 16.267854238287327 58.25685259639718 H 0.0 **** 0.06
7395 H 101.88110235441356 14.532472899643167 58.25518214621073 H 0.0 **** 0.06
7396 C 78.9396621292382 102.70579258559277 5.82409678042189 C 0.0 **** -0.24
7397 H 79.9610721943128 102.44651154216453 5.54713425697231 H 0.0 **** 0.06
7398 H 78.25994480652187 101.92943925333412 5.473391328864338 H 0.0 **** 0.06
7399 H 78.67037609487045 103.65804361328364 5.366998881664163 H 0.0 **** 0.06
7400 H 78.86758130914515 102.79011877301022 6.908932703119525 H 0.0 **** 0.06
7401 C 119.46952238118968 1.5760067326534326 9.155487635119908 C 0.0 **** -0.24
7402 H 120.38014118194684 2.117304823350345 9.4111616819512 H 0.0 **** 0.06
7403 H 119.36224170827535 1.5387248008321635 8.07036897251334 H 0.0 **** 0.06
7404 H 118.61012113674201 2.086441713651702 9.589146543646176 H 0.0 **** 0.06
7405 H 119.5278162943946 0.5610228543767306 9.550413067982788 H 0.0 **** 0.06
7406 C 98.90792222313618 102.29242928650191 122.10119063872774 C 0.0 **** -0.24
7407 H 99.32094031342652 102.86994014947712 122.92904135274138 H 0.0 **** 0.06
7408 H 97.82499222965757 102.4170243997614 122.0775010437528 H 0.0 **** 0.06
7409 H 99.150852195294 101.23864229967123 122.23700475755462 H 0.0 **** 0.06
7410 H 99.33560996470652 102.64611973690089 121.16332833406098 H 0.0 **** 0.06
7411 C 78.62420006051298 7.694323856819096 47.73679540728506 C 0.0 **** -0.24
7412 H 77.68432002955768 8.240870156474273 47.65889070642146 H 0.0 **** 0.06
7413 H 78.77789095732862 7.379024352742931 48.76903657388186 H 0.0 **** 0.06
7414 H 79.44558140997623 8.339496720495902 47.427058334199785 H 0.0 **** 0.06
7415 H 78.58849349244412 6.81696888340349 47.09050460916467 H 0.0 **** 0.06
7416 C 80.30733195543395 91.59060802374246 38.54822521207732 C 0.0 **** -0.24
7417 H 79.74545684288418 90.82314165650904 39.08240056882681 H 0.0 **** 0.06
7418 H 79.68365136048558 92.01700046646117 37.76333706772012 H 0.0 **** 0.06
7419 H 81.19718605163695 91.14430955113482 38.10342315104967 H 0.0 **** 0.06
7420 H 80.60269754985873 92.3749484889621 39.245042019637026 H 0.0 **** 0.06
7421 C 27.081165819121686 96.0000695107921 90.24555291923784 C 0.0 **** -0.24
7422 H 28.13718501825859 95.84524102124418 90.46698928482692 H 0.0 **** 0.06
7423 H 26.64805045359649 95.07155259515534 89.87322523881585 H 0.0 **** 0.06
7424 H 26.979511714147122 96.77838818868665 89.4880913382662 H 0.0 **** 0.06
7425 H 26.56105227472866 96.30656551548654 91.15316383588576 H 0.0 **** 0.06
7426 C 86.5053906401861 78.64475353556797 35.3030391869884 C 0.0 **** -0.24
7427 H 87.5830240857918 78.61836825551096 35.46905582660648 H 0.0 **** 0.06
7428 H 86.30073698003761 78.55171559093678 34.23648759978616 H 0.0 **** 0.06
7429 H 86.10558840094026 79.59106092426386 35.66883834468001 H 0.0 **** 0.06
7430 H 86.03457577450891 77.82067456219205 35.83851621199943 H 0.0 **** 0.06
7431 C 78.52239919804465 22.661081329169818 53.237997737631105 C 0.0 **** -0.24
7432 H 78.39118514977667 22.724331949755104 52.15723422632786 H 0.0 **** 0.06
7433 H 77.59297784354673 22.941029658357408 53.73357349468873 H 0.0 **** 0.06
7434 H 79.31834282675132 23.339440791243582 53.54712346343277 H 0.0 **** 0.06
7435 H 78.78882102506105 21.639901204598758 53.51163813046165 H 0.0 **** 0.06
7436 C 53.51085101733672 54.344924720558026 27.206030751967106 C 0.0 **** -0.24
7437 H 54.46353796566305 53.82926987535879 27.08311143778316 H 0.0 **** 0.06
7438 H 53.415503675116284 54.688596180834566 28.23577987306011 H 0.0 **** 0.06
7439 H 52.69490452451353 53.66004175260197 26.973567520928853 H 0.0 **** 0.06
7440 H 53.47118548650536 55.19959376942889 26.531230861471442 H 0.0 **** 0.06
7441 C 83.53765719870844 129.71341334247296 98.49527884354796 C 0.0 **** -0.24
7442 H 84.02626470503483 130.44550056871512 97.85209653448489 H 0.0 **** 0.06
7443 H 82.53943757277389 130.06568856313 98.75340897521036 H 0.0 **** 0.06
7444 H 84.12336201629822 129.57993713575837 99.40463489115055 H 0.0 **** 0.06
7445 H 83.4627357100662 128.76087716067852 97.96875991919092 H 0.0 **** 0.06
7446 C 79.54753572281939 33.63528758057777 44.60268018669943 C 0.0 **** -0.24
7447 H 78.7087257643766 33.8215070300638 45.272011598023425 H 0.0 **** 0.06
7448 H 80.28610674247274 34.429707844316056 44.715882819364424 H 0.0 **** 0.06
7449 H 79.19211986195123 33.61349963928575 43.57205446877106 H 0.0 **** 0.06
7450 H 80.0044947898389 32.67662831567162 44.84964847488965 H 0.0 **** 0.06
7451 C 60.27677005919011 113.8464362761819 130.6527076287237 C 0.0 **** -0.24
7452 H 60.20821697807028 113.67104145389256 129.57909801581866 H 0.0 **** 0.06
7453 H 61.2498918719171 114.27580989717679 130.89002740337065 H 0.0 **** 0.06
7454 H 60.15682574434962 112.90170097329342 131.18287272751303 H 0.0 **** 0.06
7455 H 59.489608479930894 114.53605138297503 130.95832200941754 H 0.0 **** 0.06
7456 C 120.66257150133134 89.6588040608934 89.50898308021769 C 0.0 **** -0.24
7457 H 120.12986128135461 90.305668314509 90.20565724989909 H 0.0 **** 0.06
7458 H 120.9870374786816 90.24233241890335 88.64635102879622 H 0.0 **** 0.06
7459 H 119.99934235391336 88.85898148778878 89.17685732151789 H 0.0 **** 0.06
7460 H 121.53182326989699 89.22822497487003 90.00531607399385 H 0.0 **** 0.06
7461 C 20.747258261198652 33.1844567757345 10.323023747270128 C 0.0 **** -0.24
7462 H 21.209964102535338 32.37214874891632 10.884489244115954 H 0.0 **** 0.06
7463 H 19.74730518540605 33.37293852067248 10.716111588633268 H 0.0 **** 0.06
7464 H 20.67767527858311 32.90470798814144 9.271883752744472 H 0.0 **** 0.06
7465 H 21.35263287004088 34.084847430862084 10.420930060075705 H 0.0 **** 0.06
7466 C 53.51997032573165 130.47239414177875 9.091755172345813 C 0.0 **** -0.24
7467 H 52.72135778828701 130.43698178246328 9.833028720364979 H 0.0 **** 0.06
7468 H 54.30283779798128 131.15052399032513 9.433620618966671 H 0.0 **** 0.06
7469 H 53.118488058617146 130.82979736852752 8.14318444413118 H 0.0 **** 0.06
7470 H 53.93550048021868 129.47450041956802 8.958656819415978 H 0.0 **** 0.06
7471 C 43.903240299156536 129.34361578969552 37.03502183384654 C 0.0 **** -0.24
7472 H 44.00841220027121 128.4353232351519 37.627950117249725 H 0.0 **** 0.06
7473 H 42.9371567072299 129.8035476046064 37.242349289767674 H 0.0 **** 0.06
7474 H 43.967986385231995 129.09447431747924 35.97551441012274 H 0.0 **** 0.06
7475 H 44.700758451195725 130.0409690659284 37.293888101750554 H 0.0 **** 0.06
7476 C 108.19411813243983 56.25727408418334 4.97408109163262 C 0.0 **** -0.24
7477 H 107.88952062877195 57.26402076158388 4.687532707947366 H 0.0 **** 0.06
7478 H 107.71747846329339 55.98832081150729 5.916747647073031 H 0.0 **** 0.06
7479 H 109.27734296255812 56.225989987636154 5.091901929631785 H 0.0 **** 0.06
7480 H 107.89195709117837 55.5524218358874 4.199035594486183 H 0.0 **** 0.06
7481 C 73.78212694294375 72.68063514655073 97.44517378497102 C 0.0 **** -0.24
7482 H 73.12811113196028 73.44664438544133 97.86116729943595 H 0.0 **** 0.06
7483 H 74.71527948315894 73.13868081870679 97.1187508779413 H 0.0 **** 0.06
7484 H 73.29100101634704 72.20774221631919 96.5942906488309 H 0.0 **** 0.06
7485 H 73.99171528846165 71.92930827547117 98.20694354152303 H 0.0 **** 0.06
7486 C 88.42160600655524 126.72346991163323 75.98379897259588 C 0.0 **** -0.24
7487 H 89.3342890147825 126.26645075729175 75.60005980959863 H 0.0 **** 0.06
7488 H 87.5574777418754 126.16533975292549 75.62142538321046 H 0.0 **** 0.06
7489 H 88.35930048955704 127.75486761693395 75.63882624102473 H 0.0 **** 0.06
7490 H 88.43664787811191 126.70370377454594 77.07316414027417 H 0.0 **** 0.06
7491 C 107.5489424995981 6.612997397426227 123.40701703355785 C 0.0 **** -0.24
7492 H 108.3034564842281 7.391475971896398 123.29252579381159 H 0.0 **** 0.06
7493 H 107.69659953787348 5.849544064308191 122.64380027253051 H 0.0 **** 0.06
7494 H 106.55636796280848 7.0499190965978755 123.29751503828469 H 0.0 **** 0.06
7495 H 107.64036747222966 6.161963411845647 124.39528688957017 H 0.0 **** 0.06
7496 C 124.65381007160539 6.272623472086163 98.04080772653053 C 0.0 **** -0.24
7497 H 124.52919191870545 5.192785691714491 98.12523632091907 H 0.0 **** 0.06
7498 H 125.66335570053623 6.547313099471793 98.34668467348737 H 0.0 **** 0.06
7499 H 123.92994110367674 6.772908060463884 98.68378711552323 H 0.0 **** 0.06
7500 H 124.4914024662776 6.57630042637977 97.00619156654128 H 0.0 **** 0.06
7501 C 18.48397376639187 41.04402887469732 66.5698632759752 C 0.0 **** -0.24
7502 H 17.92221412873286 40.997413480674396 67.50224920871318 H 0.0 **** 0.06
7503 H 19.2520321588932 41.813382550162515 66.64717226788929 H 0.0 **** 0.06
7504 H 17.808162550055187 41.28637168187308 65.74972570710025 H 0.0 **** 0.06
7505 H 18.954339411701056 40.07859076337658 66.38068627282007 H 0.0 **** 0.06
7506 C 84.53465104195733 64.58950910092338 39.514970320281236 C 0.0 **** -0.24
7507 H 83.87034085400145 64.8933709497907 38.705228084202304 H 0.0 **** 0.06
7508 H 84.15807499507903 64.98132411005648 40.46056644246289 H 0.0 **** 0.06
7509 H 85.53431758027094 64.98163643286117 39.330852489816664 H 0.0 **** 0.06
7510 H 84.5739128879509 63.501451741490655 39.56218402359144 H 0.0 **** 0.06
7511 C 88.4619776484526 7.745789723888965 40.71095109316579 C 0.0 **** -0.24
7512 H 87.83120553317352 8.063567160272594 41.540629621227964 H 0.0 **** 0.06
7513 H 88.30016113676635 6.685302954569227 40.516694243937984 H 0.0 **** 0.06
7514 H 89.50848129353571 7.913452609370701 40.96553849843016 H 0.0 **** 0.06
7515 H 88.20780972380174 8.322219726600391 39.82109008010815 H 0.0 **** 0.06
7516 C 20.313992838615718 42.36906435517733 85.35506877775894 C 0.0 **** -0.24
7517 H 19.73839773723575 42.02952479852485 86.21730931708422 H 0.0 **** 0.06
7518 H 21.235263806759313 41.79048911515366 85.28337502612055 H 0.0 **** 0.06
7519 H 20.55616230397414 43.42523636286427 85.47499431155538 H 0.0 **** 0.06
7520 H 19.72566947481039 42.23109657549736 84.44802634827643 H 0.0 **** 0.06
7521 C 20.239407421282188 4.4731922074728345 48.807500544584784 C 0.0 **** -0.24
7522 H 20.347784626449027 3.8348967202021527 47.93080806564922 H 0.0 **** 0.06
7523 H 19.689769840310262 5.374071015573975 48.535713235138644 H 0.0 **** 0.06
7524 H 21.226314506988032 4.7487373470367515 49.18124756268777 H 0.0 **** 0.06
7525 H 19.694548437063396 3.9352977056108784 49.58338434203682 H 0.0 **** 0.06
7526 C 70.29550760876899 16.04971185489336 56.54639782687539 C 0.0 **** -0.24
7527 H 70.43520153347438 16.22219232732367 57.61393640156069 H 0.0 **** 0.06
7528 H 70.64176020909886 16.92025250864242 55.99012494015784 H 0.0 **** 0.06
7529 H 69.23892639903036 15.88152402580559 56.34054008246022 H 0.0 **** 0.06
7530 H 70.86874545912502 15.173352174602371 56.243202227374525 H 0.0 **** 0.06
7531 C 31.30119835319789 63.020082092528156 42.151486277315826 C 0.0 **** -0.24
7532 H 31.60508716935385 63.24105167839994 43.174653661524786 H 0.0 **** 0.06
7533 H 30.301836795518966 62.58378160684329 42.155832392060375 H 0.0 **** 0.06
7534 H 32.00390893513105 62.31377516498179 41.708269752015894 H 0.0 **** 0.06
7535 H 31.294001688916296 63.93985407783522 41.56790844325826 H 0.0 **** 0.06
7536 C 70.45913149402548 117.78826257483558 53.51824943972835 C 0.0 **** -0.24
7537 H 70.39065076948816 117.32018854048007 54.49974549334766 H 0.0 **** 0.06
7538 H 71.08349691818893 117.17555740244697 52.86719589747142 H 0.0 **** 0.06
7539 H 70.90032146024271 118.77931762835541 53.61688857205988 H 0.0 **** 0.06
7540 H 69.46181906988835 117.87507742673063 53.08795124506483 H 0.0 **** 0.06
7541 C 59.5880572124822 120.95842440198999 51.1309822492353 C 0.0 **** -0.24
7542 H 59.92497972534801 121.42462949237984 52.05729080956061 H 0.0 **** 0.06
7543 H 59.168222175358295 121.7184373471429 50.47298204853243 H 0.0 **** 0.06
7544 H 58.82718353983827 120.21132823595917 51.357428836775654 H 0.0 **** 0.06
7545 H 60.433695811061995 120.4780913360828 50.63907376279718 H 0.0 **** 0.06
7546 C 41.03892500928819 117.906485147072 4.78865792779585 C 0.0 **** -0.24
7547 H 40.11223695458983 118.04282161070023 4.230193828531355 H 0.0 **** 0.06
7548 H 41.6235805958041 118.82676979615744 4.749292941309175 H 0.0 **** 0.06
7549 H 41.61307365433194 117.09159053636992 4.347667473918705 H 0.0 **** 0.06
7550 H 40.80582721607081 117.66818998913331 5.8263535944457985 H 0.0 **** 0.06
7551 C 17.947045106774212 97.45980606669104 108.59273061030294 C 0.0 **** -0.24
7552 H 17.64863269530992 97.864501945906 109.55893330700398 H 0.0 **** 0.06
7553 H 19.02897792612852 97.53814806624962 108.48428063962344 H 0.0 **** 0.06
7554 H 17.459564498755945 98.02193940954095 107.79643342335568 H 0.0 **** 0.06
7555 H 17.65020784010123 96.41231993662723 108.53120036307297 H 0.0 **** 0.06
7556 C 17.204781562689334 8.934064698292133 33.48246231545451 C 0.0 **** -0.24
7557 H 16.345425578750678 9.516421904281401 33.814960213054235 H 0.0 **** 0.06
7558 H 17.348451464261586 8.085705843520145 34.15140302106681 H 0.0 **** 0.06
7559 H 18.09547528845644 9.561966990638979 33.495026085805875 H 0.0 **** 0.06
7560 H 17.028883244572796 8.573349676772551 32.46980203827921 H 0.0 **** 0.06
7561 C 73.06346721711196 106.01016568865239 94.66577071695593 C 0.0 **** -0.24
7562 H 72.36462093098874 105.38985827766228 95.22556886500286 H 0.0 **** 0.06
7563 H 74.02006566793364 105.49218712978455 94.57911483353209 H 0.0 **** 0.06
7564 H 73.20802709391751 106.95657858265982 95.18699768789729 H 0.0 **** 0.06
7565 H 72.66275892332635 106.20095134689284 93.67028532909758 H 0.0 **** 0.06
7566 C 122.73100216360879 4.5713117945904855 100.9396092106121 C 0.0 **** -0.24
7567 H 122.77271109397799 5.6399878368220016 100.7268102283007 H 0.0 **** 0.06
7568 H 121.86694495542844 4.134433555486339 100.43877488124744 H 0.0 **** 0.06
7569 H 122.64334683267782 4.418887277411727 102.01483370757072 H 0.0 **** 0.06
7570 H 123.64100998818284 4.093867629060924 100.57749010447068 H 0.0 **** 0.06
7571 C 76.65541624803183 0.4976009533373542 9.830366382877948 C 0.0 **** -0.24
7572 H 77.14442876002062 -0.4275987811051323 9.525591581936428 H 0.0 **** 0.06
7573 H 76.25396293200305 0.3823444690276858 10.837250018921747 H 0.0 **** 0.06
7574 H 75.84481042337515 0.723811387780529 9.138441932487815 H 0.0 **** 0.06
7575 H 77.38117699344934 1.3114374052626374 9.819499015722851 H 0.0 **** 0.06
7576 C 103.91952609083165 45.479459169782274 117.40401840402794 C 0.0 **** -0.24
7577 H 103.73359364572664 44.96771891609765 118.34782477127898 H 0.0 **** 0.06
7578 H 103.65409044117987 46.532808091284465 117.50373569499163 H 0.0 **** 0.06
7579 H 103.3150966969793 45.02477937836585 116.61912104357006 H 0.0 **** 0.06
7580 H 104.97487856531119 45.39358194241004 117.14622643752604 H 0.0 **** 0.06
7581 C 87.90248502967711 79.20078236848265 19.91530559692785 C 0.0 **** -0.24
7582 H 88.76641270250468 78.9636556159113 20.536133547967665 H 0.0 **** 0.06
7583 H 87.00688785283688 78.76287895156484 20.35606603652417 H 0.0 **** 0.06
7584 H 88.05241536860552 78.79400306198353 18.914857197212086 H 0.0 **** 0.06
7585 H 87.78655233307688 80.2829497929253 19.85349331099536 H 0.0 **** 0.06
7586 C 120.04538376569339 104.53474801819436 125.28788423179206 C 0.0 **** -0.24
7587 H 120.30792426028374 104.52762115856945 126.34567161802474 H 0.0 **** 0.06
7588 H 119.78087871930367 105.54922708048397 124.98655072113041 H 0.0 **** 0.06
7589 H 119.19646798113064 103.87205089437572 125.1199021519383 H 0.0 **** 0.06
7590 H 120.89663774472481 104.19177048214962 124.69962786391201 H 0.0 **** 0.06
7591 C 93.51083315520674 62.06956677761471 91.9064501884863 C 0.0 **** -0.24
7592 H 93.44660813406024 61.284144117978144 92.66028433993537 H 0.0 **** 0.06
7593 H 93.79499483274992 63.007645153103255 92.38386049762391 H 0.0 **** 0.06
7594 H 92.54216869941786 62.18654315662849 91.42050145598381 H 0.0 **** 0.06
7595 H 94.2601075810604 61.79908270789389 91.16314835561079 H 0.0 **** 0.06
7596 C 71.72171677235772 71.79446907948727 117.32597899300117 C 0.0 **** -0.24
7597 H 72.79397181328085 71.90932402823445 117.48427596324541 H 0.0 **** 0.06
7598 H 71.54766451666913 71.04946606757774 116.54929062546972 H 0.0 **** 0.06
7599 H 71.29593261273709 72.74772562926312 117.01714065895027 H 0.0 **** 0.06
7600 H 71.25106843118195 71.46895895318305 118.25352292705514 H 0.0 **** 0.06
7601 C 92.91475397504234 29.365991831749568 98.04118119147694 C 0.0 **** -0.24
7602 H 92.9276765229568 29.655356059603548 99.09245321871776 H 0.0 **** 0.06
7603 H 93.4735818339044 30.096004099874506 97.45588727906875 H 0.0 **** 0.06
7604 H 91.88428055342712 29.32910257991108 97.68853667972056 H 0.0 **** 0.06
7605 H 93.3721393123725 28.383217400406295 97.93032318731528 H 0.0 **** 0.06
7606 C 128.47865419001806 11.366076730542034 31.40959436960088 C 0.0 **** -0.24
7607 H 128.8541653152621 10.570947925725477 30.767079051342932 H 0.0 **** 0.06
7608 H 127.38834188116707 11.329283045976752 31.43379994893192 H 0.0 **** 0.06
7609 H 128.8005441906529 12.331941473143814 31.019651268707662 H 0.0 **** 0.06
7610 H 128.86952496491324 11.234020318831114 32.41837710023552 H 0.0 **** 0.06
7611 C 97.92878570562371 10.899091393396589 110.6576505552242 C 0.0 **** -0.24
7612 H 97.33318866992957 10.957937888647663 109.74682361554407 H 0.0 **** 0.06
7613 H 97.75191923272584 9.939582890610893 111.14591408924647 H 0.0 **** 0.06
7614 H 97.6425906366778 11.707618133686125 111.33064118431827 H 0.0 **** 0.06
7615 H 98.98514753831913 10.99047020961865 110.40761458704189 H 0.0 **** 0.06
7616 C 60.30202236121502 43.92736368642632 94.15136133128408 C 0.0 **** -0.24
7617 H 59.6837378461033 44.82465855655235 94.13252983153188 H 0.0 **** 0.06
7618 H 60.24852367449128 43.47035949032576 95.13928162284662 H 0.0 **** 0.06
7619 H 61.335449882031014 44.19387969260188 93.92893321187316 H 0.0 **** 0.06
7620 H 59.94104428912388 43.22073271136426 93.40346560638187 H 0.0 **** 0.06
7621 C 3.809894285402436 45.229495353747275 5.318077668471222 C 0.0 **** -0.24
7622 H 4.4043979487383496 44.48803855986962 5.852799786678158 H 0.0 **** 0.06
7623 H 4.358832264909754 46.17157524911293 5.274166569585454 H 0.0 **** 0.06
7624 H 2.865834447552441 45.382595180816836 5.838906637341129 H 0.0 **** 0.06
7625 H 3.6140684046285685 44.87652407067897 4.305548177445594 H 0.0 **** 0.06
7626 C 62.345261513496865 33.553387237103095 114.64156722141524 C 0.0 **** -0.24
7627 H 61.71748322966094 34.40047563833133 114.91839053563922 H 0.0 **** 0.06
7628 H 61.794735776991246 32.899810507789596 113.96431587427526 H 0.0 **** 0.06
7629 H 62.622556485800146 32.998782370626316 115.53762602015019 H 0.0 **** 0.06
7630 H 63.246108133970395 33.91588511253599 114.14591194365693 H 0.0 **** 0.06
7631 C 16.48792396491308 119.6628398253689 23.10751678949508 C 0.0 **** -0.24
7632 H 16.16489309058204 120.63577998092948 22.738371928046632 H 0.0 **** 0.06
7633 H 15.622303823278628 119.0092682044876 23.218121532415296 H 0.0 **** 0.06
7634 H 16.977624544126172 119.78494899825085 24.073719237914148 H 0.0 **** 0.06
7635 H 17.189406489698 119.2203451671476 22.398607525327066 H 0.0 **** 0.06
7636 C 123.93636954228013 7.905596734024044 124.21908729648379 C 0.0 **** -0.24
7637 H 125.02384458208019 7.972632131101761 124.23286108644277 H 0.0 **** 0.06
7638 H 123.62348559395215 6.975156074459761 124.69178088114455 H 0.0 **** 0.06
7639 H 123.58474239618967 7.924991606798812 123.18723522658033 H 0.0 **** 0.06
7640 H 123.51385929516086 8.750545351549391 124.7624935665851 H 0.0 **** 0.06
7641 C 130.82335130562745 105.57656325512701 5.438778870536737 C 0.0 **** -0.24
7642 H 129.76147606081028 105.5970986660739 5.195206114079156 H 0.0 **** 0.06
7643 H 131.40112262672187 105.90408976990375 4.573932522656378 H 0.0 **** 0.06
7644 H 131.1152849137711 104.56135668158703 5.707624278990409 H 0.0 **** 0.06
7645 H 131.01624446622617 106.24384264072553 6.2795606445255885 H 0.0 **** 0.06
7646 C 78.34191492565122 75.35048420292114 70.75027618112365 C 0.0 **** -0.24
7647 H 78.10194087849752 74.7993413591405 71.65903876912273 H 0.0 **** 0.06
7648 H 77.52125434192541 75.25250036761824 70.03850449472183 H 0.0 **** 0.06
7649 H 79.25419157190547 74.9467276778112 70.31055412353479 H 0.0 **** 0.06
7650 H 78.48969302333626 76.40249756565353 70.9920548567389 H 0.0 **** 0.06
7651 C 65.57720866798128 74.70664311825107 67.29520774121227 C 0.0 **** -0.24
7652 H 65.47198060684184 75.75909278315578 67.56028183869554 H 0.0 **** 0.06
7653 H 64.60364271788042 74.3026650225072 67.01980178616336 H 0.0 **** 0.06
7654 H 65.9721590679252 74.15585032751778 68.14836710770079 H 0.0 **** 0.06
7655 H 66.26296215423994 74.61183604279478 66.45343210063332 H 0.0 **** 0.06
7656 C 39.15476340900497 22.851469336945414 114.88169761162374 C 0.0 **** -0.24
7657 H 39.31693613468792 22.2770886500318 115.79414615310378 H 0.0 **** 0.06
7658 H 38.342636568553644 23.562089147106832 115.0398906309664 H 0.0 **** 0.06
7659 H 38.89210515659937 22.175025298668686 114.06828346058904 H 0.0 **** 0.06
7660 H 40.06608317246233 23.391292251859866 114.62594786057218 H 0.0 **** 0.06
7661 C 67.07273812569554 75.49798356252361 8.271725964924968 C 0.0 **** -0.24
7662 H 67.83707515467623 75.18991173779213 7.5583900559491894 H 0.0 **** 0.06
7663 H 67.54196783303465 75.72653180318633 9.229651202622534 H 0.0 **** 0.06
7664 H 66.35186099944738 74.6906661519989 8.402642973048614 H 0.0 **** 0.06
7665 H 66.56226509775408 76.38472622625065 7.896497790706803 H 0.0 **** 0.06
7666 C 48.823519678034415 94.81701501955696 69.01165824243044 C 0.0 **** -0.24
7667 H 49.196000074698446 94.78173208803511 67.98781306541599 H 0.0 **** 0.06
7668 H 49.56065028879755 95.30568541801281 69.6494452134778 H 0.0 **** 0.06
7669 H 48.65000028898888 93.80167927400561 69.36937302256304 H 0.0 **** 0.06
7670 H 47.88935429354211 95.37745739343434 69.04015069716488 H 0.0 **** 0.06
7671 C 20.649145088252027 103.28148310492578 42.111443205415526 C 0.0 **** -0.24
7672 H 19.93530469020112 102.76227127084951 42.75246312428314 H 0.0 **** 0.06
7673 H 21.501487713766096 103.60655496861892 42.70746314005294 H 0.0 **** 0.06
7674 H 20.16739852700877 104.148985861482 41.66071527126036 H 0.0 **** 0.06
7675 H 20.989096538578252 102.60565641948477 41.326173939432124 H 0.0 **** 0.06
7676 C 65.30003558993022 61.17414983242972 92.22369312993821 C 0.0 **** -0.24
7677 H 64.38076268669451 61.31302513220638 92.79171019661432 H 0.0 **** 0.06
7678 H 65.06644825090589 60.72241886212973 91.25964045988434 H 0.0 **** 0.06
7679 H 65.97408901146159 60.52117028029511 92.77773747500001 H 0.0 **** 0.06
7680 H 65.77875115298494 62.14098088771962 92.0656911228799 H 0.0 **** 0.06
7681 C 83.67939001160127 101.25171260753646 119.19176841030634 C 0.0 **** -0.24
7682 H 82.74399651425847 100.69248931226522 119.20547126872196 H 0.0 **** 0.06
7683 H 84.35760029158514 100.8070570225045 118.46327701542188 H 0.0 **** 0.06
7684 H 84.13500108616934 101.22067632718867 120.18078190303322 H 0.0 **** 0.06
7685 H 83.47829329666104 102.28737992122294 118.91639804243519 H 0.0 **** 0.06
7686 C 78.27800579793609 88.19401029309067 40.79163652608861 C 0.0 **** -0.24
7687 H 79.27962181149442 88.53866019377863 40.53342283551456 H 0.0 **** 0.06
7688 H 77.57101032772624 88.53271545600495 40.03310914393555 H 0.0 **** 0.06
7689 H 77.99353383113328 88.60066946975967 41.76213304178245 H 0.0 **** 0.06
7690 H 78.26936602657162 87.10547483424408 40.837148285626625 H 0.0 **** 0.06
7691 C 118.03977025766457 35.135450186628624 38.78329367304573 C 0.0 **** -0.24
7692 H 119.01611758146751 35.49722156141549 38.45990090931238 H 0.0 **** 0.06
7693 H 118.14845382032706 34.14717445227726 39.231149096356035 H 0.0 **** 0.06
7694 H 117.37262051666062 35.073818796502266 37.92336037354724 H 0.0 **** 0.06
7695 H 117.622742531113 35.82311855814046 39.51773798665451 H 0.0 **** 0.06
7696 C 43.12590941001864 59.99462814206012 3.687330431203975 C 0.0 **** -0.24
7697 H 42.69617107851093 60.48365502474465 4.5614803818137375 H 0.0 **** 0.06
7698 H 44.20610744654467 60.145026577004586 3.6812427695475947 H 0.0 **** 0.06
7699 H 42.694594470139855 60.42382564889817 2.782751294248129 H 0.0 **** 0.06
7700 H 42.90699696484416 58.928037074625564 3.722942696130559 H 0.0 **** 0.06
7701 C 74.68969815575812 6.574649587619106 89.85517247642335 C 0.0 **** -0.24
7702 H 74.26451471110832 7.03418772041687 88.96347120594984 H 0.0 **** 0.06
7703 H 74.03516545926286 5.773493007142807 90.19893630702344 H 0.0 **** 0.06
7704 H 74.7869272522862 7.325055401269044 90.64010694492566 H 0.0 **** 0.06
7705 H 75.67279252278553 6.165603730021811 89.62031194523507 H 0.0 **** 0.06
7706 C 106.25442006416847 63.18319156596954 89.8697943140975 C 0.0 **** -0.24
7707 H 106.60290158099133 62.1985392901023 89.56080903072521 H 0.0 **** 0.06
7708 H 106.05706045425353 63.791971120324604 88.98723376141632 H 0.0 **** 0.06
7709 H 107.01850137978462 63.66380220780536 90.48111145506249 H 0.0 **** 0.06
7710 H 105.33770486712069 63.078057586655405 90.45162218086591 H 0.0 **** 0.06
7711 C 102.40731718641474 62.442607006715406 79.78119875758776 C 0.0 **** -0.24
7712 H 103.43991461351298 62.686347212833056 80.02965538494655 H 0.0 **** 0.06
7713 H 101.8753329413381 62.14949098395314 80.68621214015386 H 0.0 **** 0.06
7714 H 102.39088315028357 61.61850386447554 79.06671467531436 H 0.0 **** 0.06
7715 H 101.9237014098308 63.31486128608614 79.34112519812342 H 0.0 **** 0.06
7716 C 45.021356651908405 90.17691757432357 92.0193843646557 C 0.0 **** -0.24
7717 H 45.289667446673064 89.74342997305467 92.98247223685209 H 0.0 **** 0.06
7718 H 45.11945886358657 91.26160952014186 92.06893068856488 H 0.0 **** 0.06
7719 H 43.98992048199415 89.91624648537623 91.77879847700996 H 0.0 **** 0.06
7720 H 45.683972907015175 89.7861616125976 91.24773295643746 H 0.0 **** 0.06
7721 C 46.88631217991285 48.28858900150385 2.0977012543079354 C 0.0 **** -0.24
7722 H 47.6124088435928 48.905693226617444 1.5693856035995282 H 0.0 **** 0.06
7723 H 46.20893402364514 47.827794225059506 1.378117676260274 H 0.0 **** 0.06
7724 H 46.316031048800824 48.910271504558466 2.787975671736376 H 0.0 **** 0.06
7725 H 47.4078748036128 47.51059704977993 2.6553260656355633 H 0.0 **** 0.06
7726 C 38.52969700745105 114.01163449770638 28.85054658830356 C 0.0 **** -0.24
7727 H 38.701964950598274 115.05363478636349 28.582032915634443 H 0.0 **** 0.06
7728 H 37.63793207024574 113.93972948014107 29.473768438885713 H 0.0 **** 0.06
7729 H 39.38958897647991 113.6310178351439 29.400888459026262 H 0.0 **** 0.06
7730 H 38.38903906126132 113.42207321384814 27.944109412122558 H 0.0 **** 0.06
7731 C 93.6847644463963 5.14586640088983 123.2340850205099 C 0.0 **** -0.24
7732 H 93.56487256215213 4.455737142712508 122.40008267818281 H 0.0 **** 0.06
7733 H 93.940850519736 4.586033412462243 124.13388413551161 H 0.0 **** 0.06
7734 H 92.75242693769023 5.686659109749613 123.39564451194754 H 0.0 **** 0.06
7735 H 94.48175427958877 5.854692797101393 123.00820043451847 H 0.0 **** 0.06
7736 C 100.66106491439658 63.819808612360646 29.959130878635136 C 0.0 **** -0.24
7737 H 101.56805065397234 63.46202932758365 30.446341629441918 H 0.0 **** 0.06
7738 H 100.54547373819702 63.321660670411575 28.996819210297616 H 0.0 **** 0.06
7739 H 100.73224679234801 64.89689083122852 29.805646225213565 H 0.0 **** 0.06
7740 H 99.79994721344025 63.597995114859884 30.589570845153872 H 0.0 **** 0.06
7741 C 104.11321257477397 33.467427775794214 8.914571035946523 C 0.0 **** -0.24
7742 H 104.27690504828098 34.24040814182248 8.163480085454594 H 0.0 **** 0.06
7743 H 103.35321153038979 32.77011955409859 8.558667593001942 H 0.0 **** 0.06
7744 H 103.77635196162288 33.92853057976987 9.843406673522935 H 0.0 **** 0.06
7745 H 105.04489795403069 32.929526870562555 9.09200125340459 H 0.0 **** 0.06
7746 C 15.11364235040287 19.45679230937813 11.862016089222607 C 0.0 **** -0.24
7747 H 15.655625310091182 18.865303176703804 11.123375034217474 H 0.0 **** 0.06
7748 H 15.55672656740876 20.45034574063598 11.92862250537189 H 0.0 **** 0.06
7749 H 15.171278925499337 18.966502831217582 12.832969553799785 H 0.0 **** 0.06
7750 H 14.069618594482165 19.54388476692236 11.560652875349206 H 0.0 **** 0.06
7751 C 78.01981672467616 115.53281004134851 46.01628042081802 C 0.0 **** -0.24
7752 H 78.32541408892855 116.38178857329899 46.627915263870136 H 0.0 **** 0.06
7753 H 78.89003699743868 115.12535477306258 45.500795791928 H 0.0 **** 0.06
7754 H 77.28229932152809 115.86010558994573 45.28403037775399 H 0.0 **** 0.06
7755 H 77.58352356816522 114.7648351354604 46.654185771836865 H 0.0 **** 0.06
7756 C 12.938361734018759 40.93993325849331 24.02704493337164 C 0.0 **** -0.24
7757 H 13.169735975141037 41.803256348124364 23.401553298821455 H 0.0 **** 0.06
7758 H 13.785704503461353 40.25457085579305 24.026808685985095 H 0.0 **** 0.06
7759 H 12.058811132413744 40.43213822392053 23.633398749933427 H 0.0 **** 0.06
7760 H 12.740826117496777 41.2736793468203 25.046219479515038 H 0.0 **** 0.06
7761 C 113.46758724748453 51.62021436681664 115.85148921275655 C 0.0 **** -0.24
7762 H 113.24188248993057 50.84376864484682 116.58208064670723 H 0.0 **** 0.06
7763 H 114.42418932853123 52.08264288841019 116.09573256980174 H 0.0 **** 0.06
7764 H 112.68302449633437 52.37670780779561 115.87010201887432 H 0.0 **** 0.06
7765 H 113.5214449262548 51.177653549399395 114.85706389266515 H 0.0 **** 0.06
7766 C 110.35331735277244 94.73042210227989 23.86952135729925 C 0.0 **** -0.24
7767 H 109.90512647015856 95.27564805649129 23.038367274461137 H 0.0 **** 0.06
7768 H 109.58540988754562 94.49773897284895 24.606646247645955 H 0.0 **** 0.06
7769 H 111.12725984255339 95.34529235264667 24.331478280702584 H 0.0 **** 0.06
7770 H 110.79659477021193 93.80609961956083 23.49980725400536 H 0.0 **** 0.06
7771 C 66.09921847927924 83.92691879683726 129.44919552657413 C 0.0 **** -0.24
7772 H 65.65528923087835 83.79687664658817 130.43663280678996 H 0.0 **** 0.06
7773 H 66.16263804392752 82.9597902735751 128.94998327285998 H 0.0 **** 0.06
7774 H 67.09781335098037 84.34957797879122 129.55286269862594 H 0.0 **** 0.06
7775 H 65.47851188648707 84.60082452461235 128.85863065255816 H 0.0 **** 0.06
7776 C 39.67978140445838 5.275163356345104 42.6480770409392 C 0.0 **** -0.24
7777 H 38.97776265438805 4.468515700565433 42.85785232747051 H 0.0 **** 0.06
7778 H 39.62063261083689 5.543080564908053 41.5928911367508 H 0.0 **** 0.06
7779 H 40.692550161387125 4.945603798820059 42.88392978163709 H 0.0 **** 0.06
7780 H 39.42917760709506 6.142474564674899 43.25865828831324 H 0.0 **** 0.06
7781 C 109.58747837932427 32.56418021366949 14.41145233638192 C 0.0 **** -0.24
7782 H 108.75132898039814 32.32636379661602 13.755506542390549 H 0.0 **** 0.06
7783 H 110.50485015329448 32.1452109972829 13.997116323431488 H 0.0 **** 0.06
7784 H 109.40742308558117 32.137699592073545 15.39895216741185 H 0.0 **** 0.06
7785 H 109.68686655929369 33.64673145795615 14.49601775512874 H 0.0 **** 0.06
7786 C 115.32646839825111 111.96940535093542 93.6836897202822 C 0.0 **** -0.24
7787 H 114.93332104160288 111.14917451564381 93.08334316764896 H 0.0 **** 0.06
7788 H 116.2806230276899 112.29814691637608 93.26953696785945 H 0.0 **** 0.06
7789 H 115.47296391568929 111.6295704748035 94.70948689900044 H 0.0 **** 0.06
7790 H 114.62016106936642 112.79968603078963 93.67308626613362 H 0.0 **** 0.06
7791 C 12.430200727153505 99.6777255753534 129.16244564246543 C 0.0 **** -0.24
7792 H 11.544961256909204 99.12261692184666 129.47014978901015 H 0.0 **** 0.06
7793 H 12.21482983186172 100.74607584976394 129.18283049456514 H 0.0 **** 0.06
7794 H 12.71098725393881 99.38313066347166 128.1518254511251 H 0.0 **** 0.06
7795 H 13.251200820837681 99.4588839871659 129.84573746538743 H 0.0 **** 0.06
7796 C 37.46671424201347 76.22853838708687 105.13185201963633 C 0.0 **** -0.24
7797 H 37.90136547993089 75.4017891575304 105.69261972107878 H 0.0 **** 0.06
7798 H 36.40772613054409 76.03200363607108 104.95774323366503 H 0.0 **** 0.06
7799 H 37.97966959508682 76.32838186235352 104.17577644531265 H 0.0 **** 0.06
7800 H 37.57631084028981 77.15109586926842 105.70108281108806 H 0.0 **** 0.06
7801 C 7.158861244322477 44.85557703253767 48.52478110408878 C 0.0 **** -0.24
7802 H 7.518474599556505 45.82526440105687 48.180442438950074 H 0.0 **** 0.06
7803 H 7.984486306791538 44.14274743323813 48.52899812165657 H 0.0 **** 0.06
7804 H 6.374277580554239 44.500996714352254 47.85685243694843 H 0.0 **** 0.06
7805 H 6.759799344233226 44.95528054514443 49.53496196218613 H 0.0 **** 0.06
7806 C 7.312264500466881 42.61965818115203 2.5391880680313577 C 0.0 **** -0.24
7807 H 7.158811644902016 43.69803344145171 2.50847246008324 H 0.0 **** 0.06
7808 H 6.383193833480334 42.11320845171005 2.277165456249463 H 0.0 **** 0.06
7809 H 7.616051863550467 42.324815833388215 3.5442924274059244 H 0.0 **** 0.06
7810 H 8.09026772169591 42.34234800489426 1.8283748107034477 H 0.0 **** 0.06
7811 C 62.82925693690642 55.831049651905715 70.82720850208791 C 0.0 **** -0.24
7812 H 62.34090351687951 56.01157670620992 71.78545557742176 H 0.0 **** 0.06
7813 H 62.20711993114075 55.17085627103677 70.2219261041536 H 0.0 **** 0.06
7814 H 63.79859763066992 55.36154041532164 70.99643083826493 H 0.0 **** 0.06
7815 H 62.96945712693349 56.77727749390749 70.30686811715933 H 0.0 **** 0.06
7816 C 62.20508085758948 35.78185221111556 102.57808232210736 C 0.0 **** -0.24
7817 H 61.25897847684966 35.839735502970086 102.03889372813481 H 0.0 **** 0.06
7818 H 63.02636221557026 35.72456655219395 101.86463808434759 H 0.0 **** 0.06
7819 H 62.20827048179332 34.893267469048965 103.20955557256688 H 0.0 **** 0.06
7820 H 62.323049539062694 36.66958783642315 103.1999644286403 H 0.0 **** 0.06
7821 C 94.77663086998426 81.38161072224071 105.29356468697809 C 0.0 **** -0.24
7822 H 95.67025366676309 81.14797587714358 104.71471018675307 H 0.0 **** 0.06
7823 H 93.96038244034631 80.73090655241799 104.9798003559478 H 0.0 **** 0.06
7824 H 94.49785955740634 82.42191686087199 105.12548087319591 H 0.0 **** 0.06
7825 H 94.9795236681882 81.22687289908927 106.35276680533207 H 0.0 **** 0.06
7826 C 27.808797066628657 58.70786308870041 120.81303352811972 C 0.0 **** -0.24
7827 H 27.705186596789474 57.627339928349656 120.90657485224946 H 0.0 **** 0.06
7828 H 28.789110202149317 58.94472322718879 120.39780951568812 H 0.0 **** 0.06
7829 H 27.70901690114431 59.168689971116805 121.79567637350752 H 0.0 **** 0.06
7830 H 27.03110567560634 59.09187284346706 120.1518957594445 H 0.0 **** 0.06
7831 C 73.97648337740125 21.496327078090587 70.79354112756165 C 0.0 **** -0.24
7832 H 72.96437794422269 21.306647215115106 71.14938034308102 H 0.0 **** 0.06
7833 H 74.00712970810164 22.458150610275595 70.28174746020025 H 0.0 **** 0.06
7834 H 74.27307001030371 20.706781065327448 70.10270325903173 H 0.0 **** 0.06
7835 H 74.6625872743598 21.513537441264873 71.64100191037345 H 0.0 **** 0.06
7836 C 21.422788374677907 12.421932050867667 81.9820695947592 C 0.0 **** -0.24
7837 H 22.04906891054671 13.22562971339184 82.37074077964417 H 0.0 **** 0.06
7838 H 20.451899472688837 12.44672955388802 82.47653119366143 H 0.0 **** 0.06
7839 H 21.90338396074307 11.462540222993567 82.17184218141392 H 0.0 **** 0.06
7840 H 21.287918557970045 12.554327944395624 80.90793784934812 H 0.0 **** 0.06
7841 C 77.76381276920637 129.84814343995407 43.67696641410183 C 0.0 **** -0.24
7842 H 76.68731405958721 129.68554779331328 43.63135268359872 H 0.0 **** 0.06
7843 H 78.15570111051733 129.96688444418032 42.666701308693916 H 0.0 **** 0.06
7844 H 78.24074365751454 128.9921610583104 44.15422792634891 H 0.0 **** 0.06
7845 H 77.9705201376691 130.74776963067023 44.25568671548186 H 0.0 **** 0.06
7846 C 113.6375789266821 62.6657001645728 45.301138363147665 C 0.0 **** -0.24
7847 H 114.4376968894542 63.400952722525545 45.38436317584415 H 0.0 **** 0.06
7848 H 113.52802136764822 62.36546877449237 44.25882615045858 H 0.0 **** 0.06
7849 H 112.70340142307955 63.10418123063377 45.65248467752278 H 0.0 **** 0.06
7850 H 113.88047106212164 61.79413976560116 45.907574060217485 H 0.0 **** 0.06
7851 C 90.54682256308874 0.8414571290516015 67.03268746136145 C 0.0 **** -0.24
7852 H 89.9704423752308 0.030333717489938294 67.47720870868552 H 0.0 **** 0.06
7853 H 90.6580195283509 0.6640079924646152 65.96302980402264 H 0.0 **** 0.06
7854 H 91.53080831703289 0.8862363105087923 67.49872854627519 H 0.0 **** 0.06
7855 H 90.026134769366 1.786283727049046 67.19239800885644 H 0.0 **** 0.06
7856 C 47.435332703196934 13.60782346477967 100.306075698472 C 0.0 **** -0.24
7857 H 47.18592024040774 13.582035917903823 101.36601569541668 H 0.0 **** 0.06
7858 H 47.236540627243244 14.604611236013653 99.91054516841248 H 0.0 **** 0.06
7859 H 46.828622311600185 12.877249388135795 99.77167467792897 H 0.0 **** 0.06
7860 H 48.49061294207718 13.369145721216938 100.17516733191692 H 0.0 **** 0.06
7861 C 116.68990645405695 95.62123105172606 45.33239226008712 C 0.0 **** -0.24
7862 H 115.78023703406659 95.27781679057003 45.826060893174514 H 0.0 **** 0.06
7863 H 117.35751098018407 96.06808514630623 46.06917044304302 H 0.0 **** 0.06
7864 H 116.433533968391 96.36288973280551 44.57551178749242 H 0.0 **** 0.06
7865 H 117.18594565412414 94.7742585696023 44.857967115079106 H 0.0 **** 0.06
7866 C 110.88728886107933 110.896021677298 69.0381797878646 C 0.0 **** -0.24
7867 H 111.23261705194264 110.16288217800084 68.30926114846898 H 0.0 **** 0.06
7868 H 109.99343839150552 111.3919577185101 68.65803728173651 H 0.0 **** 0.06
7869 H 111.6694161392384 111.63593588459347 69.2077095698079 H 0.0 **** 0.06
7870 H 110.65309609023168 110.39259427428138 69.97664295483305 H 0.0 **** 0.06
7871 C 66.40070293465874 124.41581972893403 83.68703007236536 C 0.0 **** -0.24
7872 H 66.07422289315389 125.37633680038559 84.08670901057135 H 0.0 **** 0.06
7873 H 67.48569748509783 124.34292463899227 83.75783663694014 H 0.0 **** 0.06
7874 H 66.09824783727538 124.33620909213622 82.64192546526891 H 0.0 **** 0.06
7875 H 65.94268354251483 123.60981868810568 84.25988345591881 H 0.0 **** 0.06
7876 C 29.166567013307542 62.17777743312388 100.18990817390005 C 0.0 **** -0.24
7877 H 29.515323285640136 62.61223997669586 99.2532295678793 H 0.0 **** 0.06
7878 H 29.63295581688044 61.202799362899555 100.33404269225649 H 0.0 **** 0.06
7879 H 28.08311600485621 62.06118470887877 100.15451675237402 H 0.0 **** 0.06
7880 H 29.433711443095717 62.83522280316657 101.01711062516355 H 0.0 **** 0.06
7881 C 16.776536299273516 37.80390351647608 53.075803726859846 C 0.0 **** -0.24
7882 H 17.582498749636727 37.796808015037044 53.80977080039861 H 0.0 **** 0.06
7883 H 15.970879005328868 38.4489720876353 53.427693460151886 H 0.0 **** 0.06
7884 H 16.39945999263142 36.789909946224185 52.94219618699165 H 0.0 **** 0.06
7885 H 17.15490069951761 38.17888458803543 52.12509766353858 H 0.0 **** 0.06
7886 C 23.116948967466527 44.14329937248027 106.48856166135891 C 0.0 **** -0.24
7887 H 23.77190529119497 43.935379194471295 107.33561063992042 H 0.0 **** 0.06
7888 H 23.31896392166618 43.428652899678184 105.68969813301413 H 0.0 **** 0.06
7889 H 23.302071577929325 45.15452028273927 106.12765682240533 H 0.0 **** 0.06
7890 H 22.077218128626882 44.0535390252428 106.80332877616618 H 0.0 **** 0.06
7891 C 117.58101067421998 94.77216490624713 101.14253933033976 C 0.0 **** -0.24
7892 H 116.54465187447832 94.67705097966044 101.46818838454149 H 0.0 **** 0.06
7893 H 117.64289310454922 95.50088855913306 100.3349306280119 H 0.0 **** 0.06
7894 H 117.94046275265694 93.80576039807505 100.78999009665793 H 0.0 **** 0.06
7895 H 118.19538687709749 95.10378921909141 101.97991361675489 H 0.0 **** 0.06
7896 C 87.09665296677713 75.76536831727309 27.718136668490516 C 0.0 **** -0.24
7897 H 87.33967366749908 74.80699248505148 28.176336557888135 H 0.0 **** 0.06
7898 H 87.77664825243329 75.95322045328487 26.886669587099277 H 0.0 **** 0.06
7899 H 87.19887647949685 76.55869250439753 28.45809782654368 H 0.0 **** 0.06
7900 H 86.07078324903017 75.74237561481792 27.34930584517727 H 0.0 **** 0.06
7901 C 7.70593082472007 86.74351030981057 127.89620674250622 C 0.0 **** -0.24
7902 H 7.1382006109793394 86.512042422419 128.79740177582917 H 0.0 **** 0.06
7903 H 7.136890634245816 86.43535582178139 127.01941172024644 H 0.0 **** 0.06
7904 H 8.656927860291717 86.21181907150063 127.91835411118731 H 0.0 **** 0.06
7905 H 7.890376279090276 87.81748526153847 127.85005233514195 H 0.0 **** 0.06
7906 C 82.79727503081844 69.76337633381192 80.63167486952896 C 0.0 **** -0.24
7907 H 83.84622510028723 69.81760873007069 80.92209360067852 H 0.0 **** 0.06
7908 H 82.28752880571207 70.6758096674363 80.94345163265334 H 0.0 **** 0.06
7909 H 82.33074160724729 68.90416266904876 81.1124334915505 H 0.0 **** 0.06
7910 H 82.72403621958424 69.658241130382 79.54927700848886 H 0.0 **** 0.06
7911 C 13.191771084132071 25.000992251258282 109.58092820263808 C 0.0 **** -0.24
7912 H 12.285633159823803 25.18445717660822 110.15750786050468 H 0.0 **** 0.06
7913 H 12.963432656082162 24.33864353438105 108.74635575678111 H 0.0 **** 0.06
7914 H 13.941548971658932 24.535144783806174 110.2208912964168 H 0.0 **** 0.06
7915 H 13.578085737813154 25.947030219654778 109.19978295675479 H 0.0 **** 0.06
7916 C 45.77191193664976 40.07495676678525 52.100584666576765 C 0.0 **** -0.24
7917 H 46.08533083250123 39.1917384233239 51.5441447205088 H 0.0 **** 0.06
7918 H 45.98870465694202 39.93344893506941 53.159576612335826 H 0.0 **** 0.06
7919 H 44.70105918352553 40.228264092485034 51.96568569403968 H 0.0 **** 0.06
7920 H 46.31310640116388 40.94668950030888 51.73166854111123 H 0.0 **** 0.06
7921 C 22.09594527239487 9.465622906815042 99.59480647600698 C 0.0 **** -0.24
7922 H 22.808967443262944 10.249365240005801 99.85021751068794 H 0.0 **** 0.06
7923 H 22.54675074117253 8.490576405589067 99.77991516093694 H 0.0 **** 0.06
7924 H 21.82640885947103 9.548238072307072 98.54148963208456 H 0.0 **** 0.06
7925 H 21.200795286547688 9.57480247760904 100.20775169321377 H 0.0 **** 0.06
7926 C 47.79934052303163 116.59819859420347 13.811987094873928 C 0.0 **** -0.24
7927 H 48.8750229388137 116.77129808603439 13.840171520659908 H 0.0 **** 0.06
7928 H 47.28594327047233 117.53391471941579 13.59073822329799 H 0.0 **** 0.06
7929 H 47.46695527021709 116.21940534755126 14.778256293288266 H 0.0 **** 0.06
7930 H 47.569979955459964 115.86596283781265 13.036830283012875 H 0.0 **** 0.06
7931 C 6.125022492401172 72.8696181673912 43.44687548874174 C 0.0 **** -0.24
7932 H 5.102004672668372 72.57293696893481 43.2126398122995 H 0.0 **** 0.06
7933 H 6.818329603035451 72.29550857469225 42.83097047965566 H 0.0 **** 0.06
7934 H 6.3276325134574165 72.67625874561439 44.49962983153344 H 0.0 **** 0.06
7935 H 6.250530387733363 73.93249647624508 43.241844016165004 H 0.0 **** 0.06
7936 C 102.06701196029984 111.41817187825787 92.46415178062826 C 0.0 **** -0.24
7937 H 101.70750586739963 110.41215270579347 92.67895454475679 H 0.0 **** 0.06
7938 H 101.86233890214918 112.06671824996097 93.31494488988439 H 0.0 **** 0.06
7939 H 101.55743073027026 111.80423642057806 91.5813032030445 H 0.0 **** 0.06
7940 H 103.14120731143672 111.38758714927609 92.27920464262259 H 0.0 **** 0.06
7941 C 49.1534111091797 111.00782452734317 123.78170329449094 C 0.0 **** -0.24
7942 H 48.365106265615424 111.30174393676126 123.08831137632833 H 0.0 **** 0.06
7943 H 49.60462507316035 111.89926655274701 124.21717721150708 H 0.0 **** 0.06
7944 H 49.91449064027418 110.44054907500171 123.2462185042813 H 0.0 **** 0.06
7945 H 48.72899640800844 110.39059289449985 124.57366083976689 H 0.0 **** 0.06
7946 C 68.17474607401104 103.19718526942361 60.971282546205146 C 0.0 **** -0.24
7947 H 67.75094140196644 102.20453177332264 61.12265656689982 H 0.0 **** 0.06
7948 H 68.64636524997323 103.24453604940435 59.98931219401089 H 0.0 **** 0.06
7949 H 68.92024642879228 103.39483987238691 61.74220044543034 H 0.0 **** 0.06
7950 H 67.38263475651596 103.94315309115655 61.031814435593844 H 0.0 **** 0.06
7951 C 50.2832803391542 62.05418190095119 107.82448978751201 C 0.0 **** -0.24
7952 H 51.15260091294613 61.975440184803404 107.1713259670712 H 0.0 **** 0.06
7953 H 49.84258984415851 63.04557970242702 107.72252056950838 H 0.0 **** 0.06
7954 H 50.59086258430534 61.89656825139461 108.85793719003651 H 0.0 **** 0.06
7955 H 49.54899758435238 61.29844672623331 107.54528258783122 H 0.0 **** 0.06
7956 C 109.33163757582706 40.48168818965908 101.54995383586817 C 0.0 **** -0.24
7957 H 109.94902301153127 39.585869665183786 101.47939255467264 H 0.0 **** 0.06
7958 H 109.00488590882532 40.778367222645784 100.55311714431502 H 0.0 **** 0.06
7959 H 109.91373856343286 41.28863700872558 101.99672961631546 H 0.0 **** 0.06
7960 H 108.46099676562517 40.27511587878076 102.17259734924272 H 0.0 **** 0.06
7961 C 46.62072764428634 127.41763071927457 103.99024991381961 C 0.0 **** -0.24
7962 H 46.76274595499311 128.40213038153937 103.54547734795717 H 0.0 **** 0.06
7963 H 47.590835100255184 126.9395199286655 104.13051087213479 H 0.0 **** 0.06
7964 H 46.00603448008429 126.80617169280632 103.32996692891015 H 0.0 **** 0.06
7965 H 46.125276012533966 127.52244451798833 104.95494321289418 H 0.0 **** 0.06
7966 C 47.14082312329424 90.20073903068493 73.58187922112465 C 0.0 **** -0.24
7967 H 46.71164412993272 90.71412725373831 74.4422253059214 H 0.0 **** 0.06
7968 H 48.228847893834654 90.21376936125134 73.6573833034171 H 0.0 **** 0.06
7969 H 46.83327634614034 90.70590073802421 72.66730446001726 H 0.0 **** 0.06
7970 H 46.790260806546314 89.16836429431882 73.56280073167984 H 0.0 **** 0.06
7971 C 64.05353774621386 127.17134735591559 59.27503928341372 C 0.0 **** -0.24
7972 H 64.39579103903279 128.0638263659299 59.80027108885679 H 0.0 **** 0.06
7973 H 64.78751186495384 126.89146781781481 58.51936613564152 H 0.0 **** 0.06
7974 H 63.09702622471434 127.37916703606695 58.793483195748934 H 0.0 **** 0.06
7975 H 63.93319518040866 126.35539568829424 59.9862304658086 H 0.0 **** 0.06
7976 C 110.6420278637788 36.381566942708275 124.91578669074738 C 0.0 **** -0.24
7977 H 111.03097693595475 37.101170581969825 125.63628006193343 H 0.0 **** 0.06
7978 H 110.36587761708981 35.46257856295412 125.43287070017823 H 0.0 **** 0.06
7979 H 111.40911742868514 36.16404445388946 124.1712290044972 H 0.0 **** 0.06
7980 H 109.76473660403158 36.79941241534149 124.42215457539073 H 0.0 **** 0.06
7981 C 120.0286160902239 28.022621492394705 57.934937087200865 C 0.0 **** -0.24
7982 H 119.53438937395985 28.988437186626754 58.03684111333234 H 0.0 **** 0.06
7983 H 120.85418419071385 28.11003594099344 57.22821753442466 H 0.0 **** 0.06
7984 H 119.31373043794596 27.285422569090372 57.57015812332952 H 0.0 **** 0.06
7985 H 120.413386878144 27.706308024042187 58.90517663314992 H 0.0 **** 0.06
7986 C 127.29309886441699 68.85713147035705 20.82933846782481 C 0.0 **** -0.24
7987 H 127.03290566531426 69.64073224057904 21.540052004571066 H 0.0 **** 0.06
7988 H 127.70431281678847 68.0008498668688 21.36608188843823 H 0.0 **** 0.06
7989 H 128.03506740185688 69.23552852105803 20.126817448406683 H 0.0 **** 0.06
7990 H 126.4002325070431 68.54918240996028 20.285402347565338 H 0.0 **** 0.06
7991 C 6.17184381480482 98.64083712688313 107.35411890158764 C 0.0 **** -0.24
7992 H 6.170136328496554 97.55062444481517 107.32997515334229 H 0.0 **** 0.06
7993 H 6.989977376590378 99.01634949135726 106.73896408687432 H 0.0 **** 0.06
7994 H 6.3032050923805265 98.98078983124493 108.38105502671962 H 0.0 **** 0.06
7995 H 5.224315164583373 99.01336362827914 106.96647749192834 H 0.0 **** 0.06
7996 C 43.48547094198318 114.97635814962972 78.00143339145964 C 0.0 **** -0.24
7997 H 43.78725564248998 114.3630640547194 77.1519936621969 H 0.0 **** 0.06
7998 H 43.27587316995306 115.99068134801979 77.6596955170825 H 0.0 **** 0.06
7999 H 44.28920358405236 114.9993149683463 78.73701837363322 H 0.0 **** 0.06
8000 H 42.588887011366296 114.55274128302868 78.45350136386509 H 0.0 **** 0.06
8001 C 110.30391770831156 116.98690916356263 118.38046264965877 C 0.0 **** -0.24
8002 H 110.39322817356599 118.00685726129686 118.75468317297198 H 0.0 **** 0.06
8003 H 109.33587518265449 116.86322638116039 117.89338689180049 H 0.0 **** 0.06
8004 H 110.38484441209772 116.28681307693363 119.21129340500318 H 0.0 **** 0.06
8005 H 111.09929649258564 116.79284066115639 117.66118353111406 H 0.0 **** 0.06
8006 C 126.95015023962596 26.494042792315675 113.74585382709543 C 0.0 **** -0.24
8007 H 127.77419444299225 25.94129221150385 113.29360337383869 H 0.0 **** 0.06
8008 H 127.34599425812762 27.33357595832433 114.3170123208836 H 0.0 **** 0.06
8009 H 126.39199547992561 25.83312704127342 114.40866230563668 H 0.0 **** 0.06
8010 H 126.2902439225576 26.865456219036417 112.96233028196642 H 0.0 **** 0.06
8011 C 66.0680311101724 32.98852186508614 20.3562288951442 C 0.0 **** -0.24
8012 H 66.91888078212867 32.34539849807601 20.578641978506454 H 0.0 **** 0.06
8013 H 65.16211209443327 32.38609832653361 20.299290187374766 H 0.0 **** 0.06
8014 H 66.23235300083968 33.490284203275024 19.402790210357267 H 0.0 **** 0.06
8015 H 65.9598312804448 33.7341884059625 21.14478501686628 H 0.0 **** 0.06
8016 C 37.65431747384363 2.6731272909637482 31.97740952159299 C 0.0 **** -0.24
8017 H 37.87119259793957 3.51727194480344 32.63209682157208 H 0.0 **** 0.06
8018 H 38.441651235750925 2.5823875189520322 31.229254258649163 H 0.0 **** 0.06
8019 H 36.69752773363106 2.8346681762239427 31.481456527854974 H 0.0 **** 0.06
8020 H 37.606689647193264 1.7584083084910844 32.56853493976047 H 0.0 **** 0.06
8021 C 42.519423041650484 18.758719250764756 83.41731045566992 C 0.0 **** -0.24
8022 H 43.21695659361085 18.323833347020518 84.13386172490694 H 0.0 **** 0.06
8023 H 41.5056019185391 18.69960480460815 83.81430507613432 H 0.0 **** 0.06
8024 H 42.57361337746237 18.208617846871036 82.47759807901211 H 0.0 **** 0.06
8025 H 42.78103857314395 19.80226836434278 83.242796791066 H 0.0 **** 0.06
8026 C 58.2552517770733 5.51933766895138 119.53545765763363 C 0.0 **** -0.24
8027 H 57.20019775713271 5.568381266945494 119.26622131863417 H 0.0 **** 0.06
8028 H 58.483133807115934 4.530627885696703 119.93490761300222 H 0.0 **** 0.06
8029 H 58.47361201228314 6.275466408561925 120.2899234527539 H 0.0 **** 0.06
8030 H 58.86434130679645 5.703761743868483 118.65040840087715 H 0.0 **** 0.06
8031 C 87.58755128345207 75.58656480771957 51.1175482447904 C 0.0 **** -0.24
8032 H 87.60329619290488 76.38069721610408 51.864725830824966 H 0.0 **** 0.06
8033 H 87.47390793982272 76.02443046626112 50.12564333587402 H 0.0 **** 0.06
8034 H 86.75216546881157 74.91623770382665 51.318885186520035 H 0.0 **** 0.06
8035 H 88.52177401593606 75.02663632917056 51.163193287729214 H 0.0 **** 0.06
8036 C 119.09940551279074 95.73490345549351 52.035913568854426 C 0.0 **** -0.24
8037 H 120.02059809567771 96.20663175590829 51.693967516730766 H 0.0 **** 0.06
8038 H 119.32946249950854 95.02088313462559 52.82744581675891 H 0.0 **** 0.06
8039 H 118.62707230007346 95.21490082126667 51.20237948066665 H 0.0 **** 0.06
8040 H 118.42125360836609 96.49655671702521 52.41979601502135 H 0.0 **** 0.06
8041 C 29.939849938675053 38.47613823716691 128.7148822383773 C 0.0 **** -0.24
8042 H 30.675514151706608 37.98171518923799 128.08085664002405 H 0.0 **** 0.06
8043 H 29.25508156999186 37.733654135093666 129.12325344819538 H 0.0 **** 0.06
8044 H 29.380639837227505 39.202612816626306 128.12499052193493 H 0.0 **** 0.06
8045 H 30.449966053113144 38.987867766608126 129.53146349717963 H 0.0 **** 0.06
8046 C 3.1563215227471915 69.2603493403456 4.507385394058701 C 0.0 **** -0.24
8047 H 3.0475905767813742 69.55846784785062 5.550645410396498 H 0.0 **** 0.06
8048 H 3.93520165858763 69.86115571487878 4.0381435719377805 H 0.0 **** 0.06
8049 H 2.2113956302960673 69.41681614567067 3.9853271909146883 H 0.0 **** 0.06
8050 H 3.429084131183629 68.20632066161895 4.457680674076698 H 0.0 **** 0.06
8051 C 63.208467075447345 70.13929638496525 120.31759631636368 C 0.0 **** -0.24
8052 H 62.70206666662125 69.1925739142679 120.50660075644845 H 0.0 **** 0.06
8053 H 63.725716922198046 70.08888638333477 119.35972008731494 H 0.0 **** 0.06
8054 H 63.92956280204004 70.3304762031778 121.11192286458993 H 0.0 **** 0.06
8055 H 62.47431799723972 70.94496784584125 120.29239448901905 H 0.0 **** 0.06
8056 C 57.595849247589996 44.89178628308571 109.72151668980362 C 0.0 **** -0.24
8057 H 56.727427023149374 44.30362937749402 109.42497198863694 H 0.0 **** 0.06
8058 H 58.4593991255156 44.586982284249416 109.12976704778526 H 0.0 **** 0.06
8059 H 57.80222936787774 44.726358859836694 110.77839720294827 H 0.0 **** 0.06
8060 H 57.393589311752265 45.94893080363022 109.5519885199005 H 0.0 **** 0.06
8061 C 84.43480894168368 40.099992369559985 125.43231365133752 C 0.0 **** -0.24
8062 H 83.82192553572389 40.93455585860322 125.0924281449067 H 0.0 **** 0.06
8063 H 84.0139221943972 39.69132098283505 126.3512949056864 H 0.0 **** 0.06
8064 H 85.45044576166805 40.44774582080862 125.62008434831652 H 0.0 **** 0.06
8065 H 84.45251299277231 39.32594332585589 124.664639141793 H 0.0 **** 0.06
8066 C 119.56044289621425 5.885213525623158 73.0991251997468 C 0.0 **** -0.24
8067 H 119.54474760415115 4.823589049410792 73.34711640436802 H 0.0 **** 0.06
8068 H 118.55579076567642 6.296614970096776 73.20449362942728 H 0.0 **** 0.06
8069 H 119.90006895817301 6.012760430206942 72.07169084840741 H 0.0 **** 0.06
8070 H 120.23919780953986 6.405776054328523 73.77401618272575 H 0.0 **** 0.06
8071 C 6.474999008283135 67.57618422324782 41.79969406046852 C 0.0 **** -0.24
8072 H 6.523421736402611 67.52617978740659 40.71271376230294 H 0.0 **** 0.06
8073 H 7.485197265919936 67.55903702423439 42.209953709609415 H 0.0 **** 0.06
8074 H 5.914184993906531 66.72208267428488 42.17771732417785 H 0.0 **** 0.06
8075 H 5.97716565471535 68.49841401203304 42.098177897975354 H 0.0 **** 0.06
8076 C 44.76155273996585 99.2689327230861 129.2223564827016 C 0.0 **** -0.24
8077 H 43.861049160875126 98.66237994106234 129.12359149734846 H 0.0 **** 0.06
8078 H 45.03427542278985 99.67420583706902 128.2482037827859 H 0.0 **** 0.06
8079 H 45.5760061340346 98.64916628366831 129.5991797489324 H 0.0 **** 0.06
8080 H 44.57432255742283 100.08672038065669 129.9181823733485 H 0.0 **** 0.06
8081 C 3.5431949005916863 83.75426043420927 26.717385691546532 C 0.0 **** -0.24
8082 H 3.7245257075406357 84.82537934420857 26.62580559252533 H 0.0 **** 0.06
8083 H 2.511873498421153 83.58514366797793 27.024872406776566 H 0.0 **** 0.06
8084 H 4.21886083389478 83.33396816935262 27.462702711302164 H 0.0 **** 0.06
8085 H 3.719720493218915 83.27254258114955 25.755086799276256 H 0.0 **** 0.06
8086 C 94.17902364375965 69.42466670910053 83.39384439355203 C 0.0 **** -0.24
8087 H 94.89067124796736 69.00758339071484 82.68200198988521 H 0.0 **** 0.06
8088 H 93.16814823115186 69.1233885396305 83.11681568375593 H 0.0 **** 0.06
8089 H 94.24962372486743 70.51194982371197 83.3827321678582 H 0.0 **** 0.06
8090 H 94.40691179447924 69.05635163193818 84.39411958889426 H 0.0 **** 0.06
8091 C 33.87874641193531 6.477468445444913 32.74681297547227 C 0.0 **** -0.24
8092 H 32.96615988577909 6.234456142773155 32.20324119549275 H 0.0 **** 0.06
8093 H 34.500149402270694 5.585833634780613 32.83063518034055 H 0.0 **** 0.06
8094 H 33.62246851655627 6.838504347196704 33.742739767990656 H 0.0 **** 0.06
8095 H 34.42512123005267 7.252229707030352 32.20905558821687 H 0.0 **** 0.06
8096 C 71.82736798961699 11.344530455986671 76.86260828429255 C 0.0 **** -0.24
8097 H 72.465020095348 11.023862365075786 76.03781114099456 H 0.0 **** 0.06
8098 H 71.4522542683002 10.468877969602616 77.39244023335434 H 0.0 **** 0.06
8099 H 70.98888611024542 11.919404482515588 76.47017557730288 H 0.0 **** 0.06
8100 H 72.40517723807228 11.964420267483476 77.54798230651429 H 0.0 **** 0.06
8101 C 64.51753669382805 46.81482218005482 21.283451395781356 C 0.0 **** -0.24
8102 H 65.59783286433048 46.95912416335668 21.302308695534634 H 0.0 **** 0.06
8103 H 64.23989835452375 46.059030125402245 22.017905459247686 H 0.0 **** 0.06
8104 H 64.21306721493409 46.48685236824218 20.28934343797414 H 0.0 **** 0.06
8105 H 64.02202442119051 47.75545970895655 21.523042873101986 H 0.0 **** 0.06
8106 C 57.13562631699014 116.13238578040536 12.993743657729429 C 0.0 **** -0.24
8107 H 57.56227769469301 115.46486705812328 12.244932039383475 H 0.0 **** 0.06
8108 H 56.589637152327455 116.93459545274553 12.496334372608445 H 0.0 **** 0.06
8109 H 57.936026567306556 116.5571744658596 13.599317323798939 H 0.0 **** 0.06
8110 H 56.454556205572814 115.5715682760184 13.633932462711186 H 0.0 **** 0.06
8111 C 80.75457677292746 63.370186537240926 7.3848550897082035 C 0.0 **** -0.24
8112 H 80.52556261203404 62.832633333212144 6.464928183500522 H 0.0 **** 0.06
8113 H 81.83212666556761 63.52180799134054 7.45883965328683 H 0.0 **** 0.06
8114 H 80.40992326749677 62.78922025697604 8.240616529515606 H 0.0 **** 0.06
8115 H 80.25091116695472 64.33702842069525 7.376010661253229 H 0.0 **** 0.06
8116 C 92.64999331716788 83.51593191850228 76.18234842605307 C 0.0 **** -0.24
8117 H 93.25133042567813 82.64983678624449 76.46316066263314 H 0.0 **** 0.06
8118 H 92.63694470054442 83.61084131365527 75.09646656231449 H 0.0 **** 0.06
8119 H 93.08130517695572 84.41522861378084 76.62198918860511 H 0.0 **** 0.06
8120 H 91.6320796582668 83.3846173567238 76.54872215822708 H 0.0 **** 0.06
8121 C 52.971957116862185 106.41328276570289 24.067438365917155 C 0.0 **** -0.24
8122 H 52.088298606477764 106.24937790787823 24.68431380930099 H 0.0 **** 0.06
8123 H 53.83612177886589 105.94602070432524 24.538667631247165 H 0.0 **** 0.06
8124 H 53.14895740553105 107.48413171199974 23.964438693021066 H 0.0 **** 0.06
8125 H 52.81355676161802 105.97544416721826 23.081437245975962 H 0.0 **** 0.06
8126 C 47.48126829072367 104.77256026481595 70.35953074688814 C 0.0 **** -0.24
8127 H 46.977948650411086 105.08595957220825 71.27487426505034 H 0.0 **** 0.06
8128 H 47.36956530829866 105.54599428958159 69.59973490908101 H 0.0 **** 0.06
8129 H 47.037450038751686 103.84336316574996 70.00141399296683 H 0.0 **** 0.06
8130 H 48.54011646678269 104.61438974340012 70.56537321290217 H 0.0 **** 0.06
8131 C 62.12828074304241 10.412130282852075 50.76355570665328 C 0.0 **** -0.24
8132 H 63.0897963851485 10.38133652205542 50.25164668068743 H 0.0 **** 0.06
8133 H 61.889875740102724 9.42001340018794 51.14929618614616 H 0.0 **** 0.06
8134 H 61.35351877558762 10.725385756497445 50.06315409404522 H 0.0 **** 0.06
8135 H 62.17888524735284 11.120926672369308 51.589717493530145 H 0.0 **** 0.06
8136 C 7.508273760147716 60.51369885675247 61.188562102813336 C 0.0 **** -0.24
8137 H 7.993097862589934 61.05962934839813 60.380221909299664 H 0.0 **** 0.06
8138 H 8.146707476369329 60.529902797735915 62.07272010649274 H 0.0 **** 0.06
8139 H 7.339704065488604 59.481631409036 60.87998707151408 H 0.0 **** 0.06
8140 H 6.55216988573892 60.98336890046346 61.42228195819523 H 0.0 **** 0.06
8141 C 93.19414569435594 74.04973615715609 8.007943871166773 C 0.0 **** -0.24
8142 H 94.08691546139022 74.4482270845358 7.52689237137001 H 0.0 **** 0.06
8143 H 92.49959253469352 73.69223108355597 7.246666922254818 H 0.0 **** 0.06
8144 H 92.71734380712437 74.83485662546911 8.595444786470637 H 0.0 **** 0.06
8145 H 93.47230264503293 73.22452492134362 8.662647265087756 H 0.0 **** 0.06
8146 C 83.23465015673803 9.325668906178407 67.74213251590255 C 0.0 **** -0.24
8147 H 82.889882658167 9.291420683900526 68.77548767619851 H 0.0 **** 0.06
8148 H 83.92448780222807 8.500836117364031 67.56140507766682 H 0.0 **** 0.06
8149 H 83.74391034547338 10.272125927048592 67.55980958167106 H 0.0 **** 0.06
8150 H 82.3796542485782 9.238624255399145 67.07062467929991 H 0.0 **** 0.06
8151 C 83.41207312586087 50.90079144708638 37.81441601513404 C 0.0 **** -0.24
8152 H 83.98305373017712 50.566067422151164 36.948344165720414 H 0.0 **** 0.06
8153 H 82.37485107037922 51.067822312421185 37.52372102967297 H 0.0 **** 0.06
8154 H 83.83705408595564 51.83018973279364 38.193754241632405 H 0.0 **** 0.06
8155 H 83.45379766915525 50.138294515681295 38.59224180842 H 0.0 **** 0.06
8156 C 56.342433992996604 45.359178843308165 121.75826993370256 C 0.0 **** -0.24
8157 H 55.89640719297469 45.78756999658453 120.86025176714045 H 0.0 **** 0.06
8158 H 55.566602121424836 45.19256720103191 122.50546865595587 H 0.0 **** 0.06
8159 H 57.089515070875336 46.04556953902418 122.15469022953931 H 0.0 **** 0.06
8160 H 56.81724636681676 44.4097803922307 121.50913482278685 H 0.0 **** 0.06
8161 C 42.1488884492745 118.85358989566805 129.99047180471297 C 0.0 **** -0.24
8162 H 41.56988701341673 118.87205178150461 129.06733154062613 H 0.0 **** 0.06
8163 H 42.45468291720731 119.8677294007191 130.24798158783878 H 0.0 **** 0.06
8164 H 43.03355802045211 118.23130583174398 129.85126394633153 H 0.0 **** 0.06
8165 H 41.5388405009497 118.4424740020616 130.794709136069 H 0.0 **** 0.06
8166 C 15.352194538932395 107.40339071633863 20.268513316180346 C 0.0 **** -0.24
8167 H 15.077670999190644 108.23171079275821 20.922826108889524 H 0.0 **** 0.06
8168 H 15.238801685917764 107.71082069885529 19.228720855717086 H 0.0 **** 0.06
8169 H 14.70226080646222 106.55198900235126 20.46941555543731 H 0.0 **** 0.06
8170 H 16.38811158562308 107.12150325906958 20.45418976908229 H 0.0 **** 0.06
8171 C 84.5632177286613 13.605162830849252 97.44155001165618 C 0.0 **** -0.24
8172 H 83.69363136732511 14.07576212868399 96.98328010679992 H 0.0 **** 0.06
8173 H 85.36766309574443 13.536794213068504 96.70801545040244 H 0.0 **** 0.06
8174 H 84.29714660046383 12.604792591816718 97.78346085967286 H 0.0 **** 0.06
8175 H 84.89500756459267 14.203323397821151 98.29015292540811 H 0.0 **** 0.06
8176 C 75.0514321390583 125.63812567217741 114.66974743597919 C 0.0 **** -0.24
8177 H 74.4362134548148 125.09328303771173 113.95361270763848 H 0.0 **** 0.06
8178 H 75.29935680780918 124.98332640196668 115.50562050608326 H 0.0 **** 0.06
8179 H 74.50018423609811 126.5040224204929 115.0362184880369 H 0.0 **** 0.06
8180 H 75.96770606402497 125.96899019207524 114.18279043102692 H 0.0 **** 0.06
8181 C 88.27155197429569 11.87865447021434 112.16122246801234 C 0.0 **** -0.24
8182 H 88.52774013660509 12.929791936210012 112.2982560031432 H 0.0 **** 0.06
8183 H 88.13520342440061 11.673984920476087 111.09912174661349 H 0.0 **** 0.06
8184 H 87.3487373135526 11.657640765227068 112.69580586476906 H 0.0 **** 0.06
8185 H 89.07662733319422 11.255659451769219 112.55097026730584 H 0.0 **** 0.06
8186 C 27.548245087235713 34.212746893730724 29.50650788676822 C 0.0 **** -0.24
8187 H 26.73040269074444 34.503970190786504 28.846573544369846 H 0.0 **** 0.06
8188 H 27.82139330048779 35.05576049597141 30.13999388098307 H 0.0 **** 0.06
8189 H 28.408626735361793 33.9140045350606 28.90801321694468 H 0.0 **** 0.06
8190 H 27.230976558771992 33.37596933703216 30.13008912527127 H 0.0 **** 0.06
8191 C 65.09982210633285 1.1789024416942198 45.05723428874151 C 0.0 **** -0.24
8192 H 65.02213406418122 1.2537094501445836 43.972846942322235 H 0.0 **** 0.06
8193 H 66.13132948999703 1.3625201721913527 45.36080407553713 H 0.0 **** 0.06
8194 H 64.80014634088278 0.18073956299437555 45.37506241764109 H 0.0 **** 0.06
8195 H 64.44768807127818 1.9194971936561558 45.51974597454746 H 0.0 **** 0.06
8196 C 37.861856060370826 125.18515566003873 77.65524280693066 C 0.0 **** -0.24
8197 H 37.2849237447993 124.84441480028872 78.51497546247346 H 0.0 **** 0.06
8198 H 37.81802930458498 126.27302372701536 77.5966442263157 H 0.0 **** 0.06
8199 H 37.445227746443884 124.75481078596005 76.7443368673808 H 0.0 **** 0.06
8200 H 38.89890161053075 124.86846509262483 77.76594997030026 H 0.0 **** 0.06
8201 C 82.27057947882442 47.597469565534425 16.464975349273217 C 0.0 **** -0.24
8202 H 81.45143715389308 48.31616561958562 16.488412522528293 H 0.0 **** 0.06
8203 H 82.61882858159804 47.47524737735472 15.438996884359344 H 0.0 **** 0.06
8204 H 81.92177822384052 46.63660641810034 16.846400695739177 H 0.0 **** 0.06
8205 H 83.08929052986011 47.958634099122946 17.08736980959629 H 0.0 **** 0.06
8206 C 48.99652762317058 100.40605881999102 66.01677627287782 C 0.0 **** -0.24
8207 H 49.647177442884384 101.14828775292978 66.47867611567912 H 0.0 **** 0.06
8208 H 49.595556447973806 99.56248340027196 65.67181609621471 H 0.0 **** 0.06
8209 H 48.47891586689647 100.85515068237936 65.16932183707448 H 0.0 **** 0.06
8210 H 48.2659854868229 100.05959467037968 66.74710715290152 H 0.0 **** 0.06
8211 C 81.56132119549888 82.36936847287598 78.12767608690788 C 0.0 **** -0.24
8212 H 81.82933646509632 82.98234296929786 77.26686334436619 H 0.0 **** 0.06
8213 H 80.87577206582633 81.58272241795125 77.81373850962535 H 0.0 **** 0.06
8214 H 81.07994346291845 82.99225099915246 78.88151446468162 H 0.0 **** 0.06
8215 H 82.46175822035747 81.92136879255138 78.54813408721591 H 0.0 **** 0.06
8216 C 4.84167507140225 45.71128426786058 130.84055072275444 C 0.0 **** -0.24
8217 H 4.4154517459018905 44.712362424846035 130.74252340536333 H 0.0 **** 0.06
8218 H 5.826834682969604 45.73299737168465 130.37354257856572 H 0.0 **** 0.06
8219 H 4.935597459213312 45.96355357551802 131.8971837232246 H 0.0 **** 0.06
8220 H 4.190052394013492 46.434201405546816 130.3510467931322 H 0.0 **** 0.06
8221 C 0.9432669201705153 87.90739425407267 26.054165247035144 C 0.0 **** -0.24
8222 H 0.12043961738902453 87.27980420674972 25.712259681447136 H 0.0 **** 0.06
8223 H 1.1800389823220598 88.64463796242573 25.286742157398436 H 0.0 **** 0.06
8224 H 1.818580876992371 87.28611017565218 26.244593866081885 H 0.0 **** 0.06
8225 H 0.6537113850580454 88.41913533234924 26.97168696373069 H 0.0 **** 0.06
8226 C 61.14199690034954 104.70055567398731 113.84542262697711 C 0.0 **** -0.24
8227 H 61.950249275564715 104.1683465346642 114.34601122449119 H 0.0 **** 0.06
8228 H 60.396866598042834 105.00422196090808 114.58018996729008 H 0.0 **** 0.06
8229 H 60.679519960185445 104.04543340437793 113.10692186125847 H 0.0 **** 0.06
8230 H 61.541949308606576 105.5835947950963 113.34627586081292 H 0.0 **** 0.06
8231 C 34.204980691272766 88.80546028520726 93.02453671060688 C 0.0 **** -0.24
8232 H 33.22818839687483 88.76137419353032 92.54252351927627 H 0.0 **** 0.06
8233 H 34.954656960414155 88.36664996407602 92.36590443238148 H 0.0 **** 0.06
8234 H 34.173784978696006 88.24975306023047 93.96171000081397 H 0.0 **** 0.06
8235 H 34.46343642160244 89.84520741690552 93.22718925605636 H 0.0 **** 0.06
8236 C 82.0312943895531 85.14791240899976 37.59289452043758 C 0.0 **** -0.24
8237 H 81.90919689918715 84.74986788870896 38.59996661367427 H 0.0 **** 0.06
8238 H 81.62240707290167 86.1579734921304 37.54925614054606 H 0.0 **** 0.06
8239 H 81.502560942315 84.51075401449037 36.88413039953129 H 0.0 **** 0.06
8240 H 83.09045045475224 85.17385186142754 37.3380062946534 H 0.0 **** 0.06
8241 C 124.93048901779815 17.821573158329635 99.05184262048297 C 0.0 **** -0.24
8242 H 125.85313665269504 17.371249796612133 99.41762625627581 H 0.0 **** 0.06
8243 H 124.22277935922705 17.034633631176312 98.7871431562714 H 0.0 **** 0.06
8244 H 125.14702965836656 18.425869499255917 98.17120448585412 H 0.0 **** 0.06
8245 H 124.50032639553649 18.452100991231475 99.8298729738167 H 0.0 **** 0.06
8246 C 87.59096157230054 81.00080149409892 70.79013540823334 C 0.0 **** -0.24
8247 H 87.8593931542302 80.41086132043432 71.66654373265187 H 0.0 **** 0.06
8248 H 86.76599717982232 80.51668977672354 70.26634811173862 H 0.0 **** 0.06
8249 H 88.45053871461174 81.07606383428836 70.12490602801287 H 0.0 **** 0.06
8250 H 87.2848085669554 81.998770653619 71.10465788955109 H 0.0 **** 0.06
8251 C 115.2530863761812 107.15728794307627 118.01522162097288 C 0.0 **** -0.24
8252 H 116.14108467719662 107.61675650227508 117.58188561662271 H 0.0 **** 0.06
8253 H 115.5157223175044 106.68300715517674 118.9625102484419 H 0.0 **** 0.06
8254 H 114.86161949326761 106.40641949620267 117.32950835935011 H 0.0 **** 0.06
8255 H 114.49602545466114 107.92154225451951 118.18857251362692 H 0.0 **** 0.06
8256 C 101.96942142825998 28.50993075961773 18.374629027450965 C 0.0 **** -0.24
8257 H 101.92065303761194 28.288841648647633 19.441347255075357 H 0.0 **** 0.06
8258 H 102.7287925992207 27.880706206384133 17.909254539426513 H 0.0 **** 0.06
8259 H 102.2290100821919 29.55903302411039 18.2328452514069 H 0.0 **** 0.06
8260 H 101.00092535712196 28.310239096531404 17.91795192582572 H 0.0 **** 0.06
8261 C 55.46332102301392 126.95229033521085 12.007468083344122 C 0.0 **** -0.24
8262 H 55.55781152693106 127.96188027640576 11.607460369947631 H 0.0 **** 0.06
8263 H 56.45089798013203 126.49728142669211 12.08181257537953 H 0.0 **** 0.06
8264 H 54.836408947824964 126.3562163558365 11.343057349134597 H 0.0 **** 0.06
8265 H 55.006129708659785 126.99566526730645 12.996395902090853 H 0.0 **** 0.06
8266 C 17.729204066912644 72.66253517934037 85.7860162660781 C 0.0 **** -0.24
8267 H 17.942166819397386 71.77139349618771 85.19543532686279 H 0.0 **** 0.06
8268 H 17.01312993726063 73.28915168564916 85.25307992947492 H 0.0 **** 0.06
8269 H 18.65230172067777 73.2200371382804 85.9457966664553 H 0.0 **** 0.06
8270 H 17.310157544307543 72.36873554936754 86.74855316166418 H 0.0 **** 0.06
8271 C 88.49003555293822 6.562249512064 98.62916197984431 C 0.0 **** -0.24
8272 H 88.74123978060675 7.387022964177959 97.9623324262641 H 0.0 **** 0.06
8273 H 87.42197772410353 6.586873487914659 98.8510938249694 H 0.0 **** 0.06
8274 H 89.05608366529626 6.658137649841649 99.55516598223676 H 0.0 **** 0.06
8275 H 88.73947296400021 5.61674611676483 98.14701593525828 H 0.0 **** 0.06
8276 C 106.01056429898748 116.58308167420464 33.25024487094707 C 0.0 **** -0.24
8277 H 106.68947191392454 116.28369484902802 34.04778318710844 H 0.0 **** 0.06
8278 H 105.27238074148549 115.79723433249222 33.08767333206162 H 0.0 **** 0.06
8279 H 106.57719233156185 116.74451047766489 32.332834972934755 H 0.0 **** 0.06
8280 H 105.50347407706468 117.50586815594718 33.53174278423917 H 0.0 **** 0.06
8281 C 0.10418671559349946 8.560543517642326 70.45406399473187 C 0.0 **** -0.24
8282 H 0.4010889737666048 9.57979971727168 70.70362638397735 H 0.0 **** 0.06
8283 H -0.7171697119223666 8.253147889421971 71.1029092221736 H 0.0 **** 0.06
8284 H 0.9510463067596788 7.889462065793904 70.59784853037101 H 0.0 **** 0.06
8285 H -0.21978139673703367 8.521421945266699 69.41428247534104 H 0.0 **** 0.06
8286 C 44.37500669748695 59.2596702929863 36.20666787547708 C 0.0 **** -0.24
8287 H 44.51526546676013 59.98981844360327 37.003553444041074 H 0.0 **** 0.06
8288 H 44.41847757698292 58.25336250159427 36.623512441918564 H 0.0 **** 0.06
8289 H 45.16248897243065 59.37869761484043 35.46189966872032 H 0.0 **** 0.06
8290 H 43.40365176014919 59.416647886391445 35.73672836701837 H 0.0 **** 0.06
8291 C 94.16005968592546 3.8631145098564197 111.78864318774777 C 0.0 **** -0.24
8292 H 95.04067748272863 3.5857291326117497 111.2097614327099 H 0.0 **** 0.06
8293 H 94.46849012607603 4.199808295740521 112.77893783471877 H 0.0 **** 0.06
8294 H 93.50301612245156 2.99840431539452 111.88630358574862 H 0.0 **** 0.06
8295 H 93.6293671946328 4.667182764474557 111.28027707263794 H 0.0 **** 0.06
8296 C 31.45477496019882 33.154171643325526 27.656040595216524 C 0.0 **** -0.24
8297 H 30.413670530888936 32.98032524556109 27.927244287759578 H 0.0 **** 0.06
8298 H 32.00128540281209 32.210749443491125 27.69004732725091 H 0.0 **** 0.06
8299 H 31.90045536408425 33.858730861212536 28.358183566561877 H 0.0 **** 0.06
8300 H 31.50386548341845 33.566284759521494 26.647417052132994 H 0.0 **** 0.06
8301 C 28.426076978937544 109.86658411155969 28.32481800220836 C 0.0 **** -0.24
8302 H 28.683116310594926 110.87140711962041 27.98818017327254 H 0.0 **** 0.06
8303 H 28.626580718782577 109.1539458699035 27.524872723495726 H 0.0 **** 0.06
8304 H 27.36918043479062 109.83088714861913 28.587694118713948 H 0.0 **** 0.06
8305 H 29.02672672797263 109.61179629882824 29.197869265683558 H 0.0 **** 0.06
8306 C 27.401023242900862 117.980952051868 8.536487421060968 C 0.0 **** -0.24
8307 H 28.123686681101503 117.25575480881861 8.163688642707513 H 0.0 **** 0.06
8308 H 26.666205100406557 117.47324389069816 9.16130034584448 H 0.0 **** 0.06
8309 H 26.89617124143308 118.45616375322048 7.6947031064639475 H 0.0 **** 0.06
8310 H 27.917912093085533 118.73897188179922 9.125319608870626 H 0.0 **** 0.06
8311 C 54.248590774196884 126.35846993910832 97.31980444153795 C 0.0 **** -0.24
8312 H 53.59955436707526 126.89585069486071 98.01167883012369 H 0.0 **** 0.06
8313 H 54.95766936728185 127.05501622823851 96.87111038951024 H 0.0 **** 0.06
8314 H 53.64455329754463 125.89906399867078 96.53786113395952 H 0.0 **** 0.06
8315 H 54.79339289715617 125.5836054848765 97.86062445226571 H 0.0 **** 0.06
8316 C 39.411193911111525 31.660439942274138 41.905169237149266 C 0.0 **** -0.24
8317 H 40.27714430876688 31.227707829661426 42.40642996094769 H 0.0 **** 0.06
8318 H 39.51322523790145 31.5316910427091 40.82747456043887 H 0.0 **** 0.06
8319 H 39.349051506654064 32.72301435737779 42.14063986948574 H 0.0 **** 0.06
8320 H 38.506258832406445 31.159387319951804 42.24721920235075 H 0.0 **** 0.06
8321 C 91.64734101841962 49.09100114663261 13.842190517753522 C 0.0 **** -0.24
8322 H 91.59598507105774 48.012410131259045 13.99517591084475 H 0.0 **** 0.06
8323 H 92.2259563589659 49.543798546084886 14.647067680421117 H 0.0 **** 0.06
8324 H 90.63958459754109 49.505808426974525 13.84065423776741 H 0.0 **** 0.06
8325 H 92.12855423993572 49.30008319989936 12.886792172489834 H 0.0 **** 0.06
8326 C 60.94021432942813 51.22215256413676 7.207269484774656 C 0.0 **** -0.24
8327 H 61.40693942969463 52.127728020593125 7.593912994188315 H 0.0 **** 0.06
8328 H 61.68032122143373 50.63731648368412 6.660599523004237 H 0.0 **** 0.06
8329 H 60.12346549344497 51.490718063545486 6.538394087512671 H 0.0 **** 0.06
8330 H 60.55154512855941 50.63142653653156 8.037161958571119 H 0.0 **** 0.06
8331 C 40.093430154982144 18.5413586763422 16.653038299250284 C 0.0 **** -0.24
8332 H 39.752696931588815 18.48859288178125 15.618442640813441 H 0.0 **** 0.06
8333 H 41.16941452849821 18.71535209524088 16.671352275114828 H 0.0 **** 0.06
8334 H 39.86757274846613 17.602137783890804 17.15741116257334 H 0.0 **** 0.06
8335 H 39.58343941884576 19.359196745582857 17.161688264610518 H 0.0 **** 0.06
8336 C 116.73517429484127 52.64715807210649 24.350193262086826 C 0.0 **** -0.24
8337 H 115.82633394802019 52.76573887925866 23.75924288228456 H 0.0 **** 0.06
8338 H 117.40565892209588 53.48503779192049 24.15783048769095 H 0.0 **** 0.06
8339 H 117.22867880871695 51.716054451997934 24.072512176376996 H 0.0 **** 0.06
8340 H 116.47909772620699 52.62198042545435 25.40916083469933 H 0.0 **** 0.06
8341 C 126.34628838169937 126.19603842555627 75.784248109538 C 0.0 **** -0.24
8342 H 126.64263078618097 125.51772080529236 76.58455484636585 H 0.0 **** 0.06
8343 H 125.51663494003742 125.76062231892912 75.22783511796678 H 0.0 **** 0.06
8344 H 127.19079691785677 126.35528887054093 75.11298872891126 H 0.0 **** 0.06
8345 H 126.03757653543161 127.14904998696255 76.21242372819191 H 0.0 **** 0.06
8346 C 28.105703937791446 86.10775089688771 55.411678896354886 C 0.0 **** -0.24
8347 H 28.899518599901597 86.85034298943023 55.33740454036234 H 0.0 **** 0.06
8348 H 27.20398890648218 86.49117256285341 54.93341710706295 H 0.0 **** 0.06
8349 H 27.899891105791568 85.89883322110819 56.46142645909396 H 0.0 **** 0.06
8350 H 28.419701281818874 85.18983648162549 54.91396782835551 H 0.0 **** 0.06
8351 C 18.046061314332462 85.24448220811604 17.61538071363978 C 0.0 **** -0.24
8352 H 18.105084916272858 86.31433969140599 17.81608862095942 H 0.0 **** 0.06
8353 H 17.42733443189364 85.07423056069979 16.733533806721198 H 0.0 **** 0.06
8354 H 17.603925748855076 84.73754748476551 18.472976065985705 H 0.0 **** 0.06
8355 H 19.047181829717744 84.85246899538379 17.43869803153811 H 0.0 **** 0.06
8356 C 54.868852491803665 3.1917940664599342 110.42416302867838 C 0.0 **** -0.24
8357 H 54.42763241723975 2.4721188350428918 111.11380052955278 H 0.0 **** 0.06
8358 H 54.84512277563502 2.7861596631922794 109.4116916866206 H 0.0 **** 0.06
8359 H 55.900557572055504 3.3873985366706734 110.71311264376945 H 0.0 **** 0.06
8360 H 54.300014970728995 4.120947921850586 110.45688076184803 H 0.0 **** 0.06
8361 C 45.16691263290812 80.51222047373011 120.48400822323575 C 0.0 **** -0.24
8362 H 44.88511367506709 79.49470261154778 120.21546558582067 H 0.0 **** 0.06
8363 H 44.27848506073349 81.06843772380509 120.78562946969512 H 0.0 **** 0.06
8364 H 45.62716461111691 80.99964547988318 119.62475888315203 H 0.0 **** 0.06
8365 H 45.87728250104408 80.48619068307386 121.31109264522317 H 0.0 **** 0.06
8366 C 7.455849657722354 114.46922109694307 81.9696825573385 C 0.0 **** -0.24
8367 H 6.799060842029576 114.9339262987103 82.70539175531385 H 0.0 **** 0.06
8368 H 8.394808952031553 114.18947722026829 82.44810842970456 H 0.0 **** 0.06
8369 H 7.653993214367944 115.17533122004457 81.16310205132577 H 0.0 **** 0.06
8370 H 6.974923166517186 113.57966932506699 81.56394893158719 H 0.0 **** 0.06
8371 C 33.10592982353393 111.80951771806565 113.90955169199815 C 0.0 **** -0.24
8372 H 32.65492214387439 111.48779806498226 112.97055007475764 H 0.0 **** 0.06
8373 H 33.97478274789336 111.18843160760201 114.12620136364943 H 0.0 **** 0.06
8374 H 32.378120283868554 111.7105475109206 114.71495447682402 H 0.0 **** 0.06
8375 H 33.41500280886777 112.85176943396698 113.82450598099042 H 0.0 **** 0.06
8376 C 122.74701233548618 93.57687238586266 6.8083467759847665 C 0.0 **** -0.24
8377 H 122.48487024031189 94.34044456146205 6.074892200334954 H 0.0 **** 0.06
8378 H 123.78031720616016 93.71839499984742 7.12652897715089 H 0.0 **** 0.06
8379 H 122.63633529839174 92.5896076626546 6.358218448981841 H 0.0 **** 0.06
8380 H 122.08609263678915 93.65910371701415 7.670031472614305 H 0.0 **** 0.06
8381 C 12.749152208892099 130.77081044122832 58.93906225318898 C 0.0 **** -0.24
8382 H 12.80364195543001 130.90446405363835 60.01921178841934 H 0.0 **** 0.06
8383 H 11.748297018514222 130.43581791524323 58.664700399443575 H 0.0 **** 0.06
8384 H 13.48135848278929 130.02610957122647 58.628046145772544 H 0.0 **** 0.06
8385 H 12.963005806104889 131.7199300125409 58.44548321769457 H 0.0 **** 0.06
8386 C 59.27205055458808 72.8614601144522 128.45802208230063 C 0.0 **** -0.24
8387 H 59.88727514894018 71.98602707129305 128.2506308011004 H 0.0 **** 0.06
8388 H 58.21977902081086 72.57389625131884 128.45320345592316 H 0.0 **** 0.06
8389 H 59.446171959930666 73.61764252077819 127.69275784360642 H 0.0 **** 0.06
8390 H 59.53410909462836 73.26621342423948 129.4354864244486 H 0.0 **** 0.06
8391 C 96.13506869010803 84.92278896435084 3.94889859866716 C 0.0 **** -0.24
8392 H 95.389342762132 84.88711652527411 3.1537936563639803 H 0.0 **** 0.06
8393 H 97.12619012036475 85.04773098545527 3.5123011908547745 H 0.0 **** 0.06
8394 H 96.1028462544009 83.9943557171515 4.5181312672980525 H 0.0 **** 0.06
8395 H 95.92043118907702 85.76262756172787 4.609524307827794 H 0.0 **** 0.06
8396 C 14.911981865488343 6.208100456762963 55.275076249628455 C 0.0 **** -0.24
8397 H 15.60884199607139 6.417831054443269 56.08677356026158 H 0.0 **** 0.06
8398 H 13.925795198663366 6.591995352184682 55.535354972749076 H 0.0 **** 0.06
8399 H 14.853526181325122 5.131841565391284 55.11562359358959 H 0.0 **** 0.06
8400 H 15.26155458384855 6.691906622974415 54.363200183410925 H 0.0 **** 0.06
8401 C 122.38123042701153 69.4981829772781 118.23117112182825 C 0.0 **** -0.24
8402 H 123.41363804800285 69.32518104432208 118.53569752292611 H 0.0 **** 0.06
8403 H 121.81678793167876 68.56975995095635 118.31737911089198 H 0.0 **** 0.06
8404 H 122.36101685373141 69.84152008588367 117.19641194112864 H 0.0 **** 0.06
8405 H 121.93539536106081 70.25610498145394 118.874055800767 H 0.0 **** 0.06
8406 C 39.76495685585161 69.64038315558668 29.202538746683665 C 0.0 **** -0.24
8407 H 39.06177613797655 69.10414557921554 29.83904134371499 H 0.0 **** 0.06
8408 H 39.34964788149614 70.61264247490398 28.940154184876427 H 0.0 **** 0.06
8409 H 39.944554304571284 69.0645798860075 28.295037353043142 H 0.0 **** 0.06
8410 H 40.705497538010206 69.77870235977639 29.736302293003348 H 0.0 **** 0.06
8411 C 73.61336873575316 58.57056008963815 123.99361848716447 C 0.0 **** -0.24
8412 H 73.21169838355382 59.56980499020321 124.15739866129962 H 0.0 **** 0.06
8413 H 73.14551169304991 58.13091134683023 123.11349567347418 H 0.0 **** 0.06
8414 H 73.40760129356767 57.9486162648797 124.86448304486122 H 0.0 **** 0.06
8415 H 74.6910823140368 58.63327138451194 123.83896314678496 H 0.0 **** 0.06
8416 C 61.331787240030636 33.603669335544645 76.00833895170268 C 0.0 **** -0.24
8417 H 61.150974336687966 34.245338445969146 76.87101962670522 H 0.0 **** 0.06
8418 H 61.99692923585006 32.78905613854186 76.29532841033728 H 0.0 **** 0.06
8419 H 61.793364979662854 34.18628869446027 75.21269832970711 H 0.0 **** 0.06
8420 H 60.3853316565466 33.19332863397538 75.6566021265991 H 0.0 **** 0.06
8421 C 98.62058376635294 96.17420457357535 33.048403779321006 C 0.0 **** -0.24
8422 H 98.75142826062311 95.72643176212337 34.0333985419248 H 0.0 **** 0.06
8423 H 99.25659457534954 95.65934330894447 32.32799026903038 H 0.0 **** 0.06
8424 H 98.89690415873443 97.22819117894697 33.08868763068165 H 0.0 **** 0.06
8425 H 97.57824955068419 96.08385797183556 32.744067951670786 H 0.0 **** 0.06
8426 C 128.20721371338468 69.77302453075527 17.099094838231423 C 0.0 **** -0.24
8427 H 128.02268466907034 69.00971188620372 17.85564712470611 H 0.0 **** 0.06
8428 H 127.8796678154626 69.40556222920797 16.12607753833518 H 0.0 **** 0.06
8429 H 129.2727809979751 69.99853085850837 17.063029633518937 H 0.0 **** 0.06
8430 H 127.65266519100658 70.67688834255198 17.353007547617864 H 0.0 **** 0.06
8431 C 62.833154399339065 35.610065633385375 39.34009490645303 C 0.0 **** -0.24
8432 H 62.773953256539 34.60985792892063 38.91127766612925 H 0.0 **** 0.06
8433 H 61.82879218280611 35.9628304936337 39.57658807274489 H 0.0 **** 0.06
8434 H 63.296285052074396 36.28647591612321 38.62163850343511 H 0.0 **** 0.06
8435 H 63.43141296485766 35.57906936962132 40.250478543174054 H 0.0 **** 0.06
8436 C 46.39562060146858 56.20779179535856 43.6908571441626 C 0.0 **** -0.24
8437 H 46.29450994926208 56.87539854321328 42.83549037701626 H 0.0 **** 0.06
8438 H 46.40635758065963 55.1735073591412 43.34484562009508 H 0.0 **** 0.06
8439 H 45.55452127659845 56.35563253434745 44.368262130654905 H 0.0 **** 0.06
8440 H 47.3269948392537 56.42607215380282 44.21400551923335 H 0.0 **** 0.06
8441 C 44.324866584844564 21.40691302891949 10.201211684261281 C 0.0 **** -0.24
8442 H 44.04037425144159 22.453152972633774 10.310103940195152 H 0.0 **** 0.06
8443 H 45.22193728837323 21.211684438086962 10.78980788420742 H 0.0 **** 0.06
8444 H 44.52596165537046 21.193301698958436 9.151096699325802 H 0.0 **** 0.06
8445 H 43.51275899192066 20.771173598766097 10.552948894335223 H 0.0 **** 0.06
8446 C 100.36299042912356 102.015679606279 36.94202091665325 C 0.0 **** -0.24
8447 H 100.18145357030689 100.95195229114853 36.786290147915835 H 0.0 **** 0.06
8448 H 100.47661350107445 102.2116072216318 38.00829557375543 H 0.0 **** 0.06
8449 H 99.51940226123824 102.5879910490479 36.55385190286541 H 0.0 **** 0.06
8450 H 101.27253324824785 102.3086687013769 36.41868865355424 H 0.0 **** 0.06
8451 C 74.43678428692073 110.27712633700992 101.88431677825203 C 0.0 **** -0.24
8452 H 74.07557630952627 110.9962927101576 102.61983769962872 H 0.0 **** 0.06
8453 H 75.03528476131211 109.51574688678062 102.38486747913551 H 0.0 **** 0.06
8454 H 75.04987625855014 110.79188781213873 101.14367219334041 H 0.0 **** 0.06
8455 H 73.58816882521313 109.8067770546246 101.38907669656658 H 0.0 **** 0.06
8456 C 57.59699801433686 12.364509600546178 22.039969046246313 C 0.0 **** -0.24
8457 H 58.38968206891428 12.945738834721077 21.56746284385102 H 0.0 **** 0.06
8458 H 57.90963784034625 11.323482575798298 22.122106428608475 H 0.0 **** 0.06
8459 H 56.69255144223257 12.427338177891926 21.43634636721424 H 0.0 **** 0.06
8460 H 57.398512758000095 12.764131402380794 23.034453077091626 H 0.0 **** 0.06
8461 C 111.9344250279636 122.91772439036356 119.53984105317798 C 0.0 **** -0.24
8462 H 111.66542395494913 123.973577677614 119.5037197299666 H 0.0 **** 0.06
8463 H 112.96582759981378 122.79435645932722 119.21029358981602 H 0.0 **** 0.06
8464 H 111.27264052866668 122.35185521325025 118.88394179602906 H 0.0 **** 0.06
8465 H 111.83211203682389 122.55282533597756 120.56182794162052 H 0.0 **** 0.06
8466 C 126.43231528727641 100.57345948862749 114.18053986889151 C 0.0 **** -0.24
8467 H 125.71116439231156 99.93349684173525 114.68825103341925 H 0.0 **** 0.06
8468 H 126.29230472352214 100.4931897784226 113.10222900259879 H 0.0 **** 0.06
8469 H 127.44263659975202 100.25941816209817 114.44108029355561 H 0.0 **** 0.06
8470 H 126.28100058956339 101.60718838504988 114.49084436868702 H 0.0 **** 0.06
8471 C 5.157228802428733 112.7288151353191 1.036969716674463 C 0.0 **** -0.24
8472 H 4.562503367568809 111.88947543497692 0.6756803191935035 H 0.0 **** 0.06
8473 H 5.3191995843040445 112.62392873258564 2.109609339563548 H 0.0 **** 0.06
8474 H 4.628079201581102 113.66076791277068 0.8383641193397864 H 0.0 **** 0.06
8475 H 6.118366951157668 112.7397983793554 0.5233596752229062 H 0.0 **** 0.06
8476 C 108.12770414448872 15.809003512058894 2.9879941841131483 C 0.0 **** -0.24
8477 H 107.13341278274594 15.454911897992872 3.262851177892344 H 0.0 **** 0.06
8478 H 108.20330800394055 15.868347043948972 1.9021903909793423 H 0.0 **** 0.06
8479 H 108.87766165075308 15.114461994572991 3.3679038415991442 H 0.0 **** 0.06
8480 H 108.29429031181411 16.795972191093654 3.41916506243345 H 0.0 **** 0.06
8481 C 12.045473725244392 81.59471054942556 80.46961328807885 C 0.0 **** -0.24
8482 H 12.565691572504647 82.4495379164303 80.03711351812825 H 0.0 **** 0.06
8483 H 10.97236403971209 81.70162045028817 80.30665799829492 H 0.0 **** 0.06
8484 H 12.247157062255383 81.55036585045917 81.54012105469343 H 0.0 **** 0.06
8485 H 12.396246704385703 80.67813479971637 79.99493897628349 H 0.0 **** 0.06
8486 C 109.94629039521936 69.47467749055485 125.20505249274332 C 0.0 **** -0.24
8487 H 109.88948862377782 70.23608908610652 124.42791779142595 H 0.0 **** 0.06
8488 H 110.9905240183336 69.29878418056462 125.46473151053516 H 0.0 **** 0.06
8489 H 109.5009707776904 68.5492118904933 124.83921733779758 H 0.0 **** 0.06
8490 H 109.40392713258608 69.8141356875248 126.08750798416783 H 0.0 **** 0.06
8491 C 29.502459441574132 109.10052015443901 119.34487588482493 C 0.0 **** -0.24
8492 H 29.937803399902407 109.97021784354527 119.83607135006494 H 0.0 **** 0.06
8493 H 29.917255779897516 109.00485176173672 118.34100334587689 H 0.0 **** 0.06
8494 H 28.420904266535672 109.22205593102544 119.28221849957849 H 0.0 **** 0.06
8495 H 29.733530130554726 108.20426385512724 119.92139518626837 H 0.0 **** 0.06
8496 C 35.572940238516566 27.947781132367766 34.866845761870614 C 0.0 **** -0.24
8497 H 35.81732454115047 27.04851747450539 34.30184255006692 H 0.0 **** 0.06
8498 H 36.21347776829785 28.76683617990676 34.54075384750753 H 0.0 **** 0.06
8499 H 35.73219160002972 27.76243881418759 35.9297304090616 H 0.0 **** 0.06
8500 H 34.52947343961989 28.21142899827396 34.69599413132804 H 0.0 **** 0.06
8501 C 74.34455981834674 76.8673431564518 114.0276254391453 C 0.0 **** -0.24
8502 H 74.76020454606976 77.85042123996885 113.80674219957949 H 0.0 **** 0.06
8503 H 74.84290307221556 76.11576589834317 113.41516065758087 H 0.0 **** 0.06
8504 H 73.27735000240506 76.86661408634654 113.80776843893908 H 0.0 **** 0.06
8505 H 74.49869616551524 76.63667822477538 115.08190394402372 H 0.0 **** 0.06
8506 C 107.9807276740654 85.03430541958966 51.551253085641065 C 0.0 **** -0.24
8507 H 107.91015731625407 84.23384261755342 52.28765826747126 H 0.0 **** 0.06
8508 H 108.68487999474141 84.74868904329122 50.76987593188282 H 0.0 **** 0.06
8509 H 108.32739077385628 85.94594914823693 52.03827967338147 H 0.0 **** 0.06
8510 H 106.99929289713506 85.20829639800911 51.110376261441985 H 0.0 **** 0.06
8511 C 121.74427677255542 99.16452006990603 49.41811461832904 C 0.0 **** -0.24
8512 H 121.59539393086325 99.88789385888094 48.616439040881545 H 0.0 **** 0.06
8513 H 121.37153963155049 99.5780289274138 50.35467901049296 H 0.0 **** 0.06
8514 H 122.80779788273463 98.9444305767044 49.514338162694 H 0.0 **** 0.06
8515 H 121.20390933264335 98.24704102964176 49.18381194753525 H 0.0 **** 0.06
8516 C 106.12089068155234 119.93302120966536 15.333438333977096 C 0.0 **** -0.24
8517 H 106.08773362057957 120.20076841559415 14.27742673173995 H 0.0 **** 0.06
8518 H 107.01802869693933 119.34470684620004 15.53052246934 H 0.0 **** 0.06
8519 H 105.23818855198692 119.34708675728363 15.58715110008686 H 0.0 **** 0.06
8520 H 106.14100644452157 120.83986670191402 15.937685027712341 H 0.0 **** 0.06
8521 C 37.50815233205268 128.42623258408284 51.85799566699785 C 0.0 **** -0.24
8522 H 37.48377437276683 129.02896664029458 50.95007339719862 H 0.0 **** 0.06
8523 H 36.49239580011727 128.29124056746585 52.23112882692203 H 0.0 **** 0.06
8524 H 38.10938529574209 128.9320270374244 52.61329252657666 H 0.0 **** 0.06
8525 H 37.946440364552345 127.45309335244188 51.635374605425454 H 0.0 **** 0.06
8526 C 91.82679732383234 97.40703252971667 17.412262976116665 C 0.0 **** -0.24
8527 H 91.94804853992234 96.32475343429195 17.366946634795596 H 0.0 **** 0.06
8528 H 91.54475752109478 97.78148949205098 16.428279746458884 H 0.0 **** 0.06
8529 H 92.76668048639652 97.86455638436223 17.72106069418325 H 0.0 **** 0.06
8530 H 91.04715062307268 97.65500488481473 18.13329922068067 H 0.0 **** 0.06
8531 C 91.46086244276141 9.272884372824478 118.7744522352926 C 0.0 **** -0.24
8532 H 91.33284524732707 9.570079217960654 117.7337696368489 H 0.0 **** 0.06
8533 H 90.5934672342394 9.59248194141253 119.35334385005247 H 0.0 **** 0.06
8534 H 92.35940935258833 9.738872379962174 119.17772019182735 H 0.0 **** 0.06
8535 H 91.55677586107109 8.188151251409352 118.83244536440537 H 0.0 **** 0.06
8536 C 11.685771269919172 30.357650591010284 120.48046214726776 C 0.0 **** -0.24
8537 H 12.750681506383017 30.47401803770176 120.68251236848255 H 0.0 **** 0.06
8538 H 11.546717338333025 30.013375765536622 119.45541612632519 H 0.0 **** 0.06
8539 H 11.184754467587595 31.315927375329316 120.61368444182972 H 0.0 **** 0.06
8540 H 11.263166080895559 29.627366117028615 121.17020549516565 H 0.0 **** 0.06
8541 C 40.14409653301825 17.70755093853387 71.22639935885974 C 0.0 **** -0.24
8542 H 39.772864997536416 18.73147556819714 71.19053939621153 H 0.0 **** 0.06
8543 H 40.598287054144464 17.51955169075336 72.19944136313421 H 0.0 **** 0.06
8544 H 40.88942810383925 17.56368636367864 70.44318841086425 H 0.0 **** 0.06
8545 H 39.31657945469431 17.01530280502186 71.07125918343064 H 0.0 **** 0.06
8546 C 24.075502982950766 119.5176710333328 56.75616873307905 C 0.0 **** -0.24
8547 H 24.51852028947779 119.86854192022228 57.687824632442855 H 0.0 **** 0.06
8548 H 23.02428382304494 119.80359998792363 56.72334543667941 H 0.0 **** 0.06
8549 H 24.160561775985705 118.43230112501101 56.69999355023634 H 0.0 **** 0.06
8550 H 24.601608229702876 119.9664797761774 55.913100230251416 H 0.0 **** 0.06
8551 C 12.323264903605576 125.51791408555826 82.81808850732438 C 0.0 **** -0.24
8552 H 12.006604980425237 125.4773632297385 81.77600665986381 H 0.0 **** 0.06
8553 H 12.11395120923035 124.56218176248119 83.29892423028798 H 0.0 **** 0.06
8554 H 11.77984617404229 126.31084024633921 83.33249077009145 H 0.0 **** 0.06
8555 H 13.393381831945675 125.72243154560701 82.86457394406546 H 0.0 **** 0.06
8556 C 73.54941659301642 8.11340615494737 69.18134947709422 C 0.0 **** -0.24
8557 H 72.52593097110696 8.465664042606619 69.05223308820507 H 0.0 **** 0.06
8558 H 73.83172581999355 7.497324130120262 68.32663958315044 H 0.0 **** 0.06
8559 H 73.61734628974108 7.52156754659643 70.0947289963507 H 0.0 **** 0.06
8560 H 74.22133407720611 8.968592649267947 69.2517157000654 H 0.0 **** 0.06
8561 C 71.07249099962289 7.205344452466061 92.74245182919114 C 0.0 **** -0.24
8562 H 70.03127088610049 7.1890801796710555 93.0605154651239 H 0.0 **** 0.06
8563 H 71.70813520262641 6.870482428534022 93.56258680628446 H 0.0 **** 0.06
8564 H 71.35055343771594 8.220961607345142 92.45935539372479 H 0.0 **** 0.06
8565 H 71.20207689818815 6.542108317939331 91.88771166574186 H 0.0 **** 0.06
8566 C 102.97905708232348 81.9009133237357 126.2989234520901 C 0.0 **** -0.24
8567 H 103.92890651789656 81.41577818962935 126.52454579565764 H 0.0 **** 0.06
8568 H 102.22353050851645 81.56715036773342 127.01057391865787 H 0.0 **** 0.06
8569 H 102.66748594626196 81.6376005661133 125.28769037368943 H 0.0 **** 0.06
8570 H 103.09659652377007 82.98183006726248 126.3733742587294 H 0.0 **** 0.06
8571 C 18.606487763715705 111.29671658068335 111.1872845455718 C 0.0 **** -0.24
8572 H 18.537013930721486 110.38051546632826 110.60101978787173 H 0.0 **** 0.06
8573 H 18.467488347521538 111.06410850942072 112.24258547911757 H 0.0 **** 0.06
8574 H 17.834040738273274 111.99439404350423 110.86344472176262 H 0.0 **** 0.06
8575 H 19.587973924448676 111.74834782578162 111.0399833110834 H 0.0 **** 0.06
8576 C 83.04714817422688 23.792915938345487 90.04240278352131 C 0.0 **** -0.24
8577 H 82.66454979492319 22.82648097920196 89.71505375293309 H 0.0 **** 0.06
8578 H 84.10249328567151 23.696270436058853 90.30127133010527 H 0.0 **** 0.06
8579 H 82.48815824921888 24.129320526863467 90.91471843774976 H 0.0 **** 0.06
8580 H 82.93564140961922 24.519431007017246 89.23658974723153 H 0.0 **** 0.06
8581 C 76.27252132605474 4.102542730308471 6.807932399341595 C 0.0 **** -0.24
8582 H 76.85783221716986 4.051613987668077 5.889705899030254 H 0.0 **** 0.06
8583 H 76.21364946367882 5.138553593430913 7.144399590637708 H 0.0 **** 0.06
8584 H 76.75029881777584 3.4964993124546027 7.57712773502643 H 0.0 **** 0.06
8585 H 75.267751901917 3.7244206664211106 6.61913466830223 H 0.0 **** 0.06
8586 C 117.95874528386418 76.11956310760544 28.65112972104427 C 0.0 **** -0.24
8587 H 118.96572160897114 76.53384738906543 28.69526196837259 H 0.0 **** 0.06
8588 H 117.25079302431897 76.9121857850546 28.407904748660116 H 0.0 **** 0.06
8589 H 117.70181927844155 75.68610713299785 29.617821208236734 H 0.0 **** 0.06
8590 H 117.91754191717357 75.34655628362276 27.883578929662633 H 0.0 **** 0.06
8591 C 64.69665481477679 71.07069533802188 95.05079848011898 C 0.0 **** -0.24
8592 H 64.92599451557297 70.02719599451312 95.26314443868462 H 0.0 **** 0.06
8593 H 63.79291222687502 71.36132934845551 95.58813988003145 H 0.0 **** 0.06
8594 H 64.53943773531678 71.19699110192101 93.98005313828413 H 0.0 **** 0.06
8595 H 65.52810865306296 71.6983918305102 95.37269465029325 H 0.0 **** 0.06
8596 C 73.92983740639718 73.41082715313836 7.199385796261794 C 0.0 **** -0.24
8597 H 74.25351977162424 72.42678125530867 7.540366644380356 H 0.0 **** 0.06
8598 H 74.05223572282172 74.13288887837766 8.005731813668007 H 0.0 **** 0.06
8599 H 72.88066661475652 73.36645198238257 6.906565058367846 H 0.0 **** 0.06
8600 H 74.53302416980905 73.71378140464644 6.343331511345525 H 0.0 **** 0.06
8601 C 91.68432657034737 28.425969878044214 32.66574016978976 C 0.0 **** -0.24
8602 H 92.54852909461513 28.811475695255837 33.208107957084025 H 0.0 **** 0.06
8603 H 90.78404153488451 28.584113242387417 33.258508196434036 H 0.0 **** 0.06
8604 H 91.81666325774187 27.35937288735039 32.48318784664852 H 0.0 **** 0.06
8605 H 91.59107599801419 28.948458694285193 31.71403317703883 H 0.0 **** 0.06
8606 C 39.072748170113044 23.069953755314316 72.00935117537915 C 0.0 **** -0.24
8607 H 39.38802270268985 24.11031657037607 71.92787315401904 H 0.0 **** 0.06
8608 H 39.54205332789094 22.615019816416805 72.8808964565288 H 0.0 **** 0.06
8609 H 39.370815861429804 22.52829993501996 71.11122963453215 H 0.0 **** 0.06
8610 H 37.98901655085169 23.026748724435492 72.11582440483866 H 0.0 **** 0.06
8611 C 74.24072503836086 88.29387486865673 62.47064985169902 C 0.0 **** -0.24
8612 H 73.52710961575914 89.1167657422861 62.513289207215564 H 0.0 **** 0.06
8613 H 74.76153576236834 88.31351282099808 61.513517682414204 H 0.0 **** 0.06
8614 H 73.71031355371477 87.34861787897779 62.57772108903174 H 0.0 **** 0.06
8615 H 74.9638501690271 88.39951370098979 63.279947698097544 H 0.0 **** 0.06
8616 C 86.88084763505564 95.98173833505487 98.55694443341795 C 0.0 **** -0.24
8617 H 86.91937662725333 95.13966928218431 97.86721796947597 H 0.0 **** 0.06
8618 H 86.68596390669401 96.89880198006244 98.00105679445994 H 0.0 **** 0.06
8619 H 87.8348937168387 96.06816228322765 99.07784893108885 H 0.0 **** 0.06
8620 H 86.0834499633192 95.8209125483605 99.28379008137772 H 0.0 **** 0.06
8621 C 114.56114552087323 20.718820632006015 100.68943990952869 C 0.0 **** -0.24
8622 H 114.87062729871647 21.350509721012884 101.5222576627352 H 0.0 **** 0.06
8623 H 113.7749334811181 20.039888037912704 101.02089832008016 H 0.0 **** 0.06
8624 H 115.4151116962008 20.141025911239296 100.33597067676361 H 0.0 **** 0.06
8625 H 114.18472258469305 21.34330358846762 99.87880847744285 H 0.0 **** 0.06
8626 C 80.99659756171499 73.03168774331075 14.043576471898518 C 0.0 **** -0.24
8627 H 82.05540211054276 73.14281873310526 13.81381312805948 H 0.0 **** 0.06
8628 H 80.87226019597298 72.87196008556029 15.11523772377862 H 0.0 **** 0.06
8629 H 80.59389377465425 72.17697188496793 13.499478165154159 H 0.0 **** 0.06
8630 H 80.46369253237697 73.9355529689468 13.746402417338572 H 0.0 **** 0.06
8631 C 111.40489669306086 6.30838154487229 40.7877628301992 C 0.0 **** -0.24
8632 H 110.94346138912704 5.994747914557223 39.851818478285225 H 0.0 **** 0.06
8633 H 110.81214902748391 7.106259340343755 41.235237637460045 H 0.0 **** 0.06
8634 H 112.41356170608097 6.67081237288329 40.59124256221605 H 0.0 **** 0.06
8635 H 111.45067682098309 5.460925994961968 41.47122877763189 H 0.0 **** 0.06
8636 C 33.78001567246582 53.363125431372964 127.19466781008045 C 0.0 **** -0.24
8637 H 33.728144273494344 53.96607443151197 126.28785230733055 H 0.0 **** 0.06
8638 H 34.36989748445056 52.46726488698488 127.00163728160243 H 0.0 **** 0.06
8639 H 32.772231873267415 53.077347408720755 127.49780188305397 H 0.0 **** 0.06
8640 H 34.24816769019954 53.943066378677315 127.99003606184654 H 0.0 **** 0.06
8641 C 93.00807014307382 40.40946057962816 9.670012749539296 C 0.0 **** -0.24
8642 H 93.74299258149661 39.745107686650556 9.216267588429048 H 0.0 **** 0.06
8643 H 92.50594291348459 40.98254633089033 8.890439502601112 H 0.0 **** 0.06
8644 H 93.51116047711301 41.09086014286294 10.356935078373226 H 0.0 **** 0.06
8645 H 92.27361870932191 39.819179114460496 10.217794953141038 H 0.0 **** 0.06
8646 C 78.45924681338832 17.498727106166605 95.49561108891783 C 0.0 **** -0.24
8647 H 77.96290846483087 16.551235263359544 95.70711749964642 H 0.0 **** 0.06
8648 H 77.95809320765045 17.992027291285147 94.66188718737664 H 0.0 **** 0.06
8649 H 79.50063577261827 17.311734084997042 95.23529192692735 H 0.0 **** 0.06
8650 H 78.41399693217606 18.13725404547447 96.37709574088763 H 0.0 **** 0.06
8651 C 30.907442388409464 110.9706701917303 51.11412176776011 C 0.0 **** -0.24
8652 H 30.39647472707054 111.06524553944965 50.15508312589287 H 0.0 **** 0.06
8653 H 31.734490231856 110.26758098390059 51.01656211116571 H 0.0 **** 0.06
8654 H 30.206702953610886 110.60660799156264 51.86431263099587 H 0.0 **** 0.06
8655 H 31.291221186818063 111.94478032339899 51.41723189976787 H 0.0 **** 0.06
8656 C 128.80968880824028 25.1803766151462 118.76710035049943 C 0.0 **** -0.24
8657 H 128.88175210673546 26.169365977026686 119.22050572724349 H 0.0 **** 0.06
8658 H 128.4284695621477 25.274153809096518 117.74993358432543 H 0.0 **** 0.06
8659 H 128.13208349487158 24.55983233160925 119.35459449704561 H 0.0 **** 0.06
8660 H 129.79729252697862 24.718618769929883 118.74440426319045 H 0.0 **** 0.06
8661 C 61.95396670922442 106.08780016522934 11.901300556677597 C 0.0 **** -0.24
8662 H 61.13915716685885 105.46011964371456 11.538140624655028 H 0.0 **** 0.06
8663 H 62.067513687872534 105.94842417535489 12.976227935207561 H 0.0 **** 0.06
8664 H 61.72679667971069 107.13283732367427 11.691054096111117 H 0.0 **** 0.06
8665 H 62.878820346995894 105.80867717960524 11.39715520122283 H 0.0 **** 0.06
8666 C 94.25370546402472 38.54553263156622 113.83134390632586 C 0.0 **** -0.24
8667 H 94.38216985260907 38.940652560505924 114.83911055523305 H 0.0 **** 0.06
8668 H 95.23146296429616 38.39411597622622 113.3725576700495 H 0.0 **** 0.06
8669 H 93.67702948184706 39.252856731279216 113.23466145862392 H 0.0 **** 0.06
8670 H 93.72330246915794 37.59501968625092 113.87907457042769 H 0.0 **** 0.06
8671 C 54.863286010086924 23.717417422491906 56.12320694293541 C 0.0 **** -0.24
8672 H 54.227994105448474 23.147917364529334 56.80270634386363 H 0.0 **** 0.06
8673 H 55.53277077033049 23.037353115024445 55.59631969253877 H 0.0 **** 0.06
8674 H 55.451111533246305 24.4374032029016 56.693415811120104 H 0.0 **** 0.06
8675 H 54.240387593073024 24.24665740408247 55.402646724098105 H 0.0 **** 0.06
8676 C 107.04274707608377 42.75368324961287 84.60238273020316 C 0.0 **** -0.24
8677 H 106.41255712020038 42.94742692017993 85.47069633115275 H 0.0 **** 0.06
8678 H 108.03352659556792 42.445146101884234 84.93586172326846 H 0.0 **** 0.06
8679 H 107.12659343371189 43.661009074492185 84.00449889120343 H 0.0 **** 0.06
8680 H 106.598197339465 41.96188044599994 84.00080960083251 H 0.0 **** 0.06
8681 C 99.49125057682095 128.4892517901136 16.647499799543915 C 0.0 **** -0.24
8682 H 98.67172862712077 128.70218807110376 17.333642178425293 H 0.0 **** 0.06
8683 H 100.34825797588998 128.11617903633723 17.208585825142215 H 0.0 **** 0.06
8684 H 99.77031968643946 129.40265499732288 16.121065994831238 H 0.0 **** 0.06
8685 H 99.17416701016424 127.73623757425281 15.925075306188596 H 0.0 **** 0.06
8686 C 37.18409965599284 50.064724771636634 61.198393866781885 C 0.0 **** -0.24
8687 H 36.636874576419814 51.00716260206323 61.23025526791196 H 0.0 **** 0.06
8688 H 37.20091610312704 49.68943933159164 60.17538336283343 H 0.0 **** 0.06
8689 H 36.6917255172321 49.337388343735455 61.84427770040554 H 0.0 **** 0.06
8690 H 38.20468273611681 50.22505353874227 61.544034225654855 H 0.0 **** 0.06
8691 C 51.1758418843296 1.2173612045759512 97.46169422703235 C 0.0 **** -0.24
8692 H 50.883107618966335 1.2574185565969742 96.41224362866791 H 0.0 **** 0.06
8693 H 52.2185987541622 1.5210750095105539 97.55897504545334 H 0.0 **** 0.06
8694 H 51.0563809852282 0.19995469019690404 97.83257760867633 H 0.0 **** 0.06
8695 H 50.545505830544414 1.8922236143784517 98.03990750976897 H 0.0 **** 0.06
8696 C 29.168930274785794 12.400209633566988 54.5730542286407 C 0.0 **** -0.24
8697 H 29.404188447366238 13.38452321436543 54.978850828712126 H 0.0 **** 0.06
8698 H 28.100530766201615 12.212331961470795 54.67582045450989 H 0.0 **** 0.06
8699 H 29.72657457144615 11.63966574041919 55.121001653764 H 0.0 **** 0.06
8700 H 29.44579549808276 12.366067468524946 53.51955510346983 H 0.0 **** 0.06
8701 C 86.82828981206598 123.98203040229097 1.8514250008884687 C 0.0 **** -0.24
8702 H 87.31125355769905 123.24599071440124 1.2088986950497258 H 0.0 **** 0.06
8703 H 85.7455595600315 123.8843240422975 1.7653482735693729 H 0.0 **** 0.06
8704 H 87.12711526546832 124.98461563910755 1.5445916748811328 H 0.0 **** 0.06
8705 H 87.12865782783945 123.81419120336611 2.885568372749674 H 0.0 **** 0.06
8706 C 109.37334834938983 122.22071744867972 34.683665251235425 C 0.0 **** -0.24
8707 H 109.92924128364592 121.43652515706691 34.16993676918992 H 0.0 **** 0.06
8708 H 108.57128520628268 122.57908319575805 34.037382612806766 H 0.0 **** 0.06
8709 H 110.04464708199691 123.04557519015975 34.92247099911765 H 0.0 **** 0.06
8710 H 108.94758500414034 121.81951643565392 35.603927630962005 H 0.0 **** 0.06
8711 C 37.89319531889406 74.11654589074955 24.448036506828004 C 0.0 **** -0.24
8712 H 38.078883115677115 73.33462934266682 25.184581847398697 H 0.0 **** 0.06
8713 H 38.5503545999014 74.96364289923417 24.64563414896341 H 0.0 **** 0.06
8714 H 36.854535477569485 74.438701815078 24.513677174333672 H 0.0 **** 0.06
8715 H 38.09101235387911 73.72859371233626 23.449030014152797 H 0.0 **** 0.06
8716 C 82.56396310583942 122.15979979244096 96.01676826045896 C 0.0 **** -0.24
8717 H 82.07001997094386 121.53194129271114 96.75795536385303 H 0.0 **** 0.06
8718 H 81.94060320963847 123.02938365940892 95.80497852504227 H 0.0 **** 0.06
8719 H 82.71519148116876 121.59024293401626 95.10013725607429 H 0.0 **** 0.06
8720 H 83.5287233588169 122.48849824565431 96.4032801697709 H 0.0 **** 0.06
8721 C 30.037281833426277 121.79560030849184 49.1325119904823 C 0.0 **** -0.24
8722 H 29.070357380726108 122.07400736036391 48.71192174373675 H 0.0 **** 0.06
8723 H 29.940177062731095 120.85273736071649 49.67089438669379 H 0.0 **** 0.06
8724 H 30.372829302479147 122.57260204472958 49.818053065959504 H 0.0 **** 0.06
8725 H 30.763792912518838 121.68177076684475 48.328494013253106 H 0.0 **** 0.06
8726 C 39.10947864237723 126.89270837663227 110.46369845520493 C 0.0 **** -0.24
8727 H 38.17266598939973 126.66777576284971 110.97236020688231 H 0.0 **** 0.06
8728 H 38.91143643848463 127.52821836495693 109.60084865254566 H 0.0 **** 0.06
8729 H 39.57541606340961 125.96376670692752 110.13245797485447 H 0.0 **** 0.06
8730 H 39.77962150906437 127.40976711970609 111.15046643893336 H 0.0 **** 0.06
8731 C 128.40034943008607 50.014037161239756 68.21118038860797 C 0.0 **** -0.24
8732 H 129.21053689669418 49.2875111151163 68.16299785118494 H 0.0 **** 0.06
8733 H 128.76739661065835 50.98995731864491 67.88906730318422 H 0.0 **** 0.06
8734 H 128.03492386715598 50.08298026084603 69.23592840306324 H 0.0 **** 0.06
8735 H 127.58861252265643 49.69728909343716 67.5560427360208 H 0.0 **** 0.06
8736 C 103.29931372217757 26.591248352051878 0.8741432861940126 C 0.0 **** -0.24
8737 H 103.47604494933799 26.685464860074063 -0.1969018785085872 H 0.0 **** 0.06
8738 H 102.34762318649426 26.086821726962484 1.0431711212830095 H 0.0 **** 0.06
8739 H 103.26990928771619 27.58348626573951 1.3262294124138592 H 0.0 **** 0.06
8740 H 104.10411635475681 26.01097814533958 1.326465881897903 H 0.0 **** 0.06
8741 C 21.307427775618578 10.979879952733143 63.79886413654532 C 0.0 **** -0.24
8742 H 22.14553065344907 10.90466592140649 64.49187416418314 H 0.0 **** 0.06
8743 H 20.881924204808115 9.989432308838133 63.63564441371912 H 0.0 **** 0.06
8744 H 21.656665402244016 11.386586503763425 62.850092667787465 H 0.0 **** 0.06
8745 H 20.54709992084976 11.637989861790743 64.21793727967199 H 0.0 **** 0.06
8746 C 24.89835853051173 62.948822520084306 76.6443947061648 C 0.0 **** -0.24
8747 H 25.87145976613303 63.43382872861808 76.7142686862529 H 0.0 **** 0.06
8748 H 24.22398569588293 63.57083703803508 76.05408902001152 H 0.0 **** 0.06
8749 H 24.486279833878186 62.815806029680346 77.64496717290824 H 0.0 **** 0.06
8750 H 25.00919857636957 61.97646065874018 76.16421205523662 H 0.0 **** 0.06
8751 C 6.189559170192467 77.29091353408629 73.9567637077842 C 0.0 **** -0.24
8752 H 5.384999360940412 76.99197675144691 73.28432424950847 H 0.0 **** 0.06
8753 H 6.943078461936409 76.50370666867914 73.99373044470042 H 0.0 **** 0.06
8754 H 5.785351886882665 77.45470679866204 74.95525539909448 H 0.0 **** 0.06
8755 H 6.643849627159966 78.21195096223838 73.59314489707901 H 0.0 **** 0.06
8756 C 75.68421450979913 124.07760943556225 47.981266339767046 C 0.0 **** -0.24
8757 H 74.77346011240115 124.5347650636797 48.36887782411685 H 0.0 **** 0.06
8758 H 76.30174616086026 124.84170838420945 47.50860583356172 H 0.0 **** 0.06
8759 H 75.42359164457478 123.31520118398593 47.24628203933952 H 0.0 **** 0.06
8760 H 76.23714018779748 123.61833761466892 48.800313362124086 H 0.0 **** 0.06
8761 C 23.99587204595052 129.53836623712374 46.38215193370206 C 0.0 **** -0.24
8762 H 24.30182271101434 129.58368406539358 47.42713611033159 H 0.0 **** 0.06
8763 H 23.233250847006133 130.29450619338095 46.193947842668734 H 0.0 **** 0.06
8764 H 23.589736482434468 128.55072421307693 46.16486737909864 H 0.0 **** 0.06
8765 H 24.858628469811478 129.72591823263556 45.74301261610606 H 0.0 **** 0.06
8766 C 118.2653747589901 106.8630730009815 90.78517464222868 C 0.0 **** -0.24
8767 H 118.77925267465788 107.82328053139389 90.81577520762545 H 0.0 **** 0.06
8768 H 118.99013465074552 106.06994328570664 90.59906480328026 H 0.0 **** 0.06
8769 H 117.52395979119467 106.87282964263619 89.9847389754709 H 0.0 **** 0.06
8770 H 117.76844059899089 106.68623204427931 91.7383058537991 H 0.0 **** 0.06
8771 C 104.26005560437193 64.89387946364188 102.80296090667285 C 0.0 **** -0.24
8772 H 105.31498933599423 64.92067437700928 103.07798342906722 H 0.0 **** 0.06
8773 H 103.92461002532107 65.90176728190222 102.55659749152339 H 0.0 **** 0.06
8774 H 103.67736399207158 64.51113149878208 103.64004744565358 H 0.0 **** 0.06
8775 H 104.12691874045248 64.24397993030708 101.93907691798998 H 0.0 **** 0.06
8776 C 115.73931739780932 69.985766136769 36.71283375774715 C 0.0 **** -0.24
8777 H 115.10260264864088 70.76195522479415 37.139519121953754 H 0.0 **** 0.06
8778 H 116.37238990761678 70.42155388995073 35.93921643556024 H 0.0 **** 0.06
8779 H 115.11615033554186 69.20545411325574 36.275773766307225 H 0.0 **** 0.06
8780 H 116.36342815048121 69.5566776098197 37.496540500543915 H 0.0 **** 0.06
8781 C 31.02297361373249 70.91940978193678 72.68880510254759 C 0.0 **** -0.24
8782 H 31.74193118013872 70.24966972546818 72.21734383888146 H 0.0 **** 0.06
8783 H 30.06655053994203 70.40753055078183 72.79742394104261 H 0.0 **** 0.06
8784 H 30.89204161445946 71.8059521095662 72.06847134397943 H 0.0 **** 0.06
8785 H 31.39127671306747 71.21507257132194 73.6706975405643 H 0.0 **** 0.06
8786 C 92.07423887729402 32.12922475979298 26.334565056333844 C 0.0 **** -0.24
8787 H 92.63456158957436 31.217428088016703 26.12764777885053 H 0.0 **** 0.06
8788 H 92.16966512883708 32.38247696731477 27.390016414855552 H 0.0 **** 0.06
8789 H 91.02358587688353 31.97181265586665 26.09156063357304 H 0.0 **** 0.06
8790 H 92.46936026357666 32.943310342649866 25.727830220569416 H 0.0 **** 0.06
8791 C 105.80849652812981 35.539803904800934 4.398313730554349 C 0.0 **** -0.24
8792 H 105.56759149411586 36.582563485268764 4.190367293253956 H 0.0 **** 0.06
8793 H 106.8840116420564 35.38905103221606 4.300736428390934 H 0.0 **** 0.06
8794 H 105.28586954073016 34.897846298109386 3.689377260770925 H 0.0 **** 0.06
8795 H 105.49675735718873 35.291114379670546 5.412470349452519 H 0.0 **** 0.06
8796 C 17.432966451617865 98.49702804563225 59.35649107695136 C 0.0 **** -0.24
8797 H 16.384339665602855 98.61154944218981 59.63154961462257 H 0.0 **** 0.06
8798 H 17.50161393697433 98.00810024665412 58.38411683553838 H 0.0 **** 0.06
8799 H 17.94046589095231 97.88969845875988 60.10539929227102 H 0.0 **** 0.06
8800 H 17.90332200541281 99.479123114353 59.303732925985884 H 0.0 **** 0.06
8801 C 77.23547426813425 60.06056647012795 84.24021413733624 C 0.0 **** -0.24
8802 H 78.19878237770646 59.554367509359835 84.18482893098691 H 0.0 **** 0.06
8803 H 77.07631402503037 60.428026448492574 85.25474345497283 H 0.0 **** 0.06
8804 H 76.44234262136493 59.36178594355697 83.97714694110886 H 0.0 **** 0.06
8805 H 77.22601854602797 60.8996875566115 83.54414596826886 H 0.0 **** 0.06
8806 C 13.653775299355146 62.94166327171598 72.9582688061472 C 0.0 **** -0.24
8807 H 13.90026289516237 63.593573017652375 72.12049736357017 H 0.0 **** 0.06
8808 H 14.44657642766279 62.205062650016544 73.08989852781633 H 0.0 **** 0.06
8809 H 12.712079554516492 62.430115597481006 72.75518345208741 H 0.0 **** 0.06
8810 H 13.555196387727875 63.53661912117258 73.86595221778805 H 0.0 **** 0.06
8811 C 90.86268495224272 50.98483889572708 58.18617752900147 C 0.0 **** -0.24
8812 H 91.38057429115753 51.00780467759648 57.22621565681159 H 0.0 **** 0.06
8813 H 91.49019443648686 51.44599950757498 58.948346909274036 H 0.0 **** 0.06
8814 H 90.65506858558197 49.95087227430065 58.46166970471943 H 0.0 **** 0.06
8815 H 89.92458535736466 51.53542056063901 58.105260655501056 H 0.0 **** 0.06
8816 C 61.589995216322805 122.85153751437736 36.30020059263668 C 0.0 **** -0.24
8817 H 61.47170957337268 122.28656067865597 37.22433970675435 H 0.0 **** 0.06
8818 H 61.35409414062926 123.90100672267039 36.48340996123929 H 0.0 **** 0.06
8819 H 60.91561020132508 122.45427959672287 35.541847478306174 H 0.0 **** 0.06
8820 H 62.61946075586718 122.76641805971508 35.952058582685645 H 0.0 **** 0.06
8821 C 88.31387631647975 121.58043652424604 16.037078831893734 C 0.0 **** -0.24
8822 H 88.46446585499537 121.4266764690617 14.968764234631323 H 0.0 **** 0.06
8823 H 88.58214960321854 122.60401668202569 16.29856414998951 H 0.0 **** 0.06
8824 H 88.94310166226099 120.88604891735936 16.595710106363292 H 0.0 **** 0.06
8825 H 87.26780120568327 121.40256621287612 16.285204706378394 H 0.0 **** 0.06
8826 C 4.8446767422735775 117.42127852732784 118.50970143432059 C 0.0 **** -0.24
8827 H 5.021275714124968 117.00425881746784 119.50130309282603 H 0.0 **** 0.06
8828 H 5.190393349518857 116.7168883127809 117.75356726312964 H 0.0 **** 0.06
8829 H 5.389294259369265 118.35959903892683 118.40906945306854 H 0.0 **** 0.06
8830 H 3.7788527856055225 117.60286034990833 118.3774149556636 H 0.0 **** 0.06
8831 C 87.71034900427841 62.33679151890087 4.57374321946449 C 0.0 **** -0.24
8832 H 86.79387601766626 62.92314849965956 4.631882452916074 H 0.0 **** 0.06
8833 H 87.51883638824665 61.417405921433186 4.020121932121697 H 0.0 **** 0.06
8834 H 88.04759730090043 62.090389478232765 5.580935919175289 H 0.0 **** 0.06
8835 H 88.48016203086439 62.914786189437564 4.063476155670202 H 0.0 **** 0.06
8836 C 50.2042775255282 54.416621422930405 39.16936292224611 C 0.0 **** -0.24
8837 H 51.06426768567525 54.863598926661524 39.6677488029905 H 0.0 **** 0.06
8838 H 49.749890486742174 53.6750593608472 39.82603450574226 H 0.0 **** 0.06
8839 H 50.5295330760552 53.93563965877078 38.24648433852906 H 0.0 **** 0.06
8840 H 49.475061638572924 55.19238886454397 38.93667318301479 H 0.0 **** 0.06
8841 C 86.79302296777864 103.0184359402973 117.75850232784128 C 0.0 **** -0.24
8842 H 86.11731208868436 102.55716246622667 117.03790182215646 H 0.0 **** 0.06
8843 H 87.22093700474228 103.92397641814263 117.32762586426212 H 0.0 **** 0.06
8844 H 87.59334555986844 102.31909995534512 118.0028145543489 H 0.0 **** 0.06
8845 H 86.24211346967618 103.27111335069557 118.66350631922796 H 0.0 **** 0.06
8846 C 112.5536563128977 75.29609053565589 57.820826750120176 C 0.0 **** -0.24
8847 H 111.66760988523025 74.71251236913959 57.57197801835531 H 0.0 **** 0.06
8848 H 112.85409706238853 75.08160528834891 58.84640410116927 H 0.0 **** 0.06
8849 H 112.3274152037868 76.35860320254591 57.7225905240704 H 0.0 **** 0.06
8850 H 113.36383355162637 75.03260099795162 57.1411977682271 H 0.0 **** 0.06
8851 C 44.598419366587564 124.67093377560995 9.872100618567458 C 0.0 **** -0.24
8852 H 44.00431692575725 123.8276650883414 10.225216345742087 H 0.0 **** 0.06
8853 H 45.63329071503102 124.54606645282875 10.19374797221263 H 0.0 **** 0.06
8854 H 44.19840218892466 125.59648519073136 10.285305489967232 H 0.0 **** 0.06
8855 H 44.55974799713829 124.711710545323 8.783496808053211 H 0.0 **** 0.06
8856 C 86.79962618996038 87.52180310289272 36.333194443134715 C 0.0 **** -0.24
8857 H 87.55685460108103 88.2101976311367 35.95751027482535 H 0.0 **** 0.06
8858 H 86.04167817531834 88.08114740683662 36.882493342746415 H 0.0 **** 0.06
8859 H 87.26717342391333 86.79485564541153 36.996252788409635 H 0.0 **** 0.06
8860 H 86.33382182977144 87.0029764004985 35.49547574883974 H 0.0 **** 0.06
8861 C 29.42081545362487 83.42499440523883 118.65219602305285 C 0.0 **** -0.24
8862 H 29.608545132469935 83.25548139068937 119.71225231991383 H 0.0 **** 0.06
8863 H 29.86939902523811 84.37140159079118 118.3493599003491 H 0.0 **** 0.06
8864 H 28.345337276300846 83.46013791352593 118.47567932018268 H 0.0 **** 0.06
8865 H 29.858272873938596 82.613215647575 118.07162502370113 H 0.0 **** 0.06
8866 C 107.75015149473705 53.39214626337045 108.81713310883674 C 0.0 **** -0.24
8867 H 107.89110818720698 53.63507611713206 109.87057546409625 H 0.0 **** 0.06
8868 H 108.05528978533616 52.36088239161583 108.63893957668614 H 0.0 **** 0.06
8869 H 108.35539399982079 54.06166403328211 108.20679887394374 H 0.0 **** 0.06
8870 H 106.69899709794754 53.5119297065136 108.5548702104326 H 0.0 **** 0.06
8871 C 78.52216765822224 83.05842284511684 15.86137969248469 C 0.0 **** -0.24
8872 H 78.5796902157966 83.10206441896841 14.773247760250939 H 0.0 **** 0.06
8873 H 79.30255835494675 82.39753759600976 16.23964092501967 H 0.0 **** 0.06
8874 H 77.5453768627142 82.67632428311268 16.157820064980626 H 0.0 **** 0.06
8875 H 78.66120573553799 84.0588186833792 16.272189981390312 H 0.0 **** 0.06
8876 C 25.519889438097067 89.61937608168545 63.06923179934233 C 0.0 **** -0.24
8877 H 25.462523062190257 89.34451705479668 64.1220404409766 H 0.0 **** 0.06
8878 H 25.972246586540734 90.60772174839278 62.97699066388981 H 0.0 **** 0.06
8879 H 24.516520979180655 89.63772913992875 62.643895033208366 H 0.0 **** 0.06
8880 H 26.128260801314838 88.88977347715742 62.53499891110465 H 0.0 **** 0.06
8881 C 37.79150542977146 29.871525905049964 108.75380406575924 C 0.0 **** -0.24
8882 H 38.146772762833706 28.84257178302508 108.69462614187124 H 0.0 **** 0.06
8883 H 36.87065188952457 29.905696547449168 109.33623398331726 H 0.0 **** 0.06
8884 H 37.600460726413786 30.248046686141038 107.74894612209282 H 0.0 **** 0.06
8885 H 38.54935639584019 30.490443664203298 109.23436956972343 H 0.0 **** 0.06
8886 C 95.42474774364626 44.759937296126395 57.37671121367444 C 0.0 **** -0.24
8887 H 94.64738741951969 45.48583166169836 57.13863191078954 H 0.0 **** 0.06
8888 H 95.76272158668885 44.91256286538728 58.401393873192234 H 0.0 **** 0.06
8889 H 96.26409558455909 44.88876579277407 56.69270102465882 H 0.0 **** 0.06
8890 H 95.02322849804365 43.751760590985306 57.27317614454657 H 0.0 **** 0.06
8891 C 97.00149082039167 17.8739048803817 19.630081689222607 C 0.0 **** -0.24
8892 H 97.29050080239142 18.11115648786526 18.60674776788713 H 0.0 **** 0.06
8893 H 96.99022197118 18.787159998814417 20.225945460243793 H 0.0 **** 0.06
8894 H 97.71862528010428 17.17092405204977 20.055626836612447 H 0.0 **** 0.06
8895 H 96.00836858653159 17.42543750201071 19.633026313229323 H 0.0 **** 0.06
8896 C 85.08315509989593 83.96266101606255 12.682192447640492 C 0.0 **** -0.24
8897 H 84.58756668569316 84.58780602566344 11.938740116871791 H 0.0 **** 0.06
8898 H 86.0934104232341 83.72991742539352 12.34585324159664 H 0.0 **** 0.06
8899 H 84.52096148031988 83.03777246593026 12.812203944497078 H 0.0 **** 0.06
8900 H 85.12962084385832 84.49587333659872 13.63138209581371 H 0.0 **** 0.06
8901 C 42.025890491260526 98.60748412790667 23.247586074187097 C 0.0 **** -0.24
8902 H 42.53507124534907 99.33480168461304 23.88014011660374 H 0.0 **** 0.06
8903 H 42.55092369739192 97.65291170046788 23.2956188017572 H 0.0 **** 0.06
8904 H 42.01571148800548 98.96516045866204 22.21789461018483 H 0.0 **** 0.06
8905 H 41.00185553429576 98.47706266788366 23.59669076820279 H 0.0 **** 0.06
8906 C 82.92122037219339 78.343808921674 8.375707754361088 C 0.0 **** -0.24
8907 H 82.90722191354494 78.55980386337782 9.444248688275138 H 0.0 **** 0.06
8908 H 83.92650558520876 78.04276115835 8.080126323989987 H 0.0 **** 0.06
8909 H 82.63059408480706 79.23605715472667 7.8210097011958055 H 0.0 **** 0.06
8910 H 82.220935285915 77.53709176557592 8.159068194550173 H 0.0 **** 0.06
8911 C 79.57783331852265 78.37965582931874 25.021759038771748 C 0.0 **** -0.24
8912 H 80.52678894964401 78.14622938929136 24.537614587670994 H 0.0 **** 0.06
8913 H 79.11724324931492 77.45875100063063 25.380013947519288 H 0.0 **** 0.06
8914 H 78.91498996304037 78.86382670410076 24.305288757206085 H 0.0 **** 0.06
8915 H 79.7551323548104 79.04941130515546 25.863182308156333 H 0.0 **** 0.06
8916 C 125.8151826837761 121.73962962735149 72.60706532784604 C 0.0 **** -0.24
8917 H 126.06422267123472 122.25074716133267 71.67706026086303 H 0.0 **** 0.06
8918 H 125.02073966690715 122.2821681874781 73.11833786318888 H 0.0 **** 0.06
8919 H 126.69774982400325 121.69866314209 73.24554670472612 H 0.0 **** 0.06
8920 H 125.48040027821396 120.72602204637957 72.38573999575323 H 0.0 **** 0.06
8921 C 51.75212439140769 92.31007248873638 124.48977651031564 C 0.0 **** -0.24
8922 H 51.742264407627076 93.05589734084832 125.28469383201933 H 0.0 **** 0.06
8923 H 50.972749940969564 92.54264919484599 123.76377992728906 H 0.0 **** 0.06
8924 H 51.56971104695367 91.3234070322891 124.91617672881142 H 0.0 **** 0.06
8925 H 52.72370319511617 92.31930864323863 123.99620203073628 H 0.0 **** 0.06
8926 C 23.95719498985295 29.293204225304464 90.85323088675926 C 0.0 **** -0.24
8927 H 23.0819630017956 29.12828216838186 91.48162578833026 H 0.0 **** 0.06
8928 H 24.77154347042199 29.687545731471204 91.46035752253312 H 0.0 **** 0.06
8929 H 23.710770357836907 30.008122082946073 90.06723603172344 H 0.0 **** 0.06
8930 H 24.262807201946146 28.349373293280422 90.40233756826507 H 0.0 **** 0.06
8931 C 60.746893575616696 62.14533319687919 68.05795260910318 C 0.0 **** -0.24
8932 H 59.7562253677728 62.598667273787584 68.10531553270813 H 0.0 **** 0.06
8933 H 61.39563111674033 62.613519888120294 68.79782574635554 H 0.0 **** 0.06
8934 H 61.16541316133373 62.29264622607593 67.0625312529703 H 0.0 **** 0.06
8935 H 60.667639891370214 61.078311460126 68.26535299800734 H 0.0 **** 0.06
8936 C 48.31826512885138 109.03791619128927 95.60064980344612 C 0.0 **** -0.24
8937 H 48.32115382252351 108.94725150281644 94.51516928795542 H 0.0 **** 0.06
8938 H 47.51180629574691 108.43204397895225 96.01460453813192 H 0.0 **** 0.06
8939 H 48.16781102084883 110.08137809526404 95.87783799955236 H 0.0 **** 0.06
8940 H 49.273286822555576 108.69201405867456 95.99670759642378 H 0.0 **** 0.06
8941 C 102.14291000236226 19.371908291245624 21.23005051743857 C 0.0 **** -0.24
8942 H 102.91895878257786 19.92228626711581 20.69818320208205 H 0.0 **** 0.06
8943 H 101.184520100044 19.523320230589434 20.733337629892105 H 0.0 **** 0.06
8944 H 102.0810340573629 19.73245886359514 22.256845104266205 H 0.0 **** 0.06
8945 H 102.38784540009758 18.309539242500044 21.232531289114746 H 0.0 **** 0.06
8946 C 43.040670210498945 57.56773549640809 104.89156719590937 C 0.0 **** -0.24
8947 H 42.489975541363975 57.7555505362177 105.81360916638337 H 0.0 **** 0.06
8948 H 43.38493815291537 58.51448011334617 104.47392291038165 H 0.0 **** 0.06
8949 H 42.388329539717716 57.068643350913646 104.1744819909563 H 0.0 **** 0.06
8950 H 43.89916129023723 56.93143475758282 105.10536354061216 H 0.0 **** 0.06
8951 C 67.40398502896618 17.282614531761872 62.68308584129423 C 0.0 **** -0.24
8952 H 68.0587161762141 16.43991750674494 62.4605249910947 H 0.0 **** 0.06
8953 H 67.88185606642239 18.207702534805954 62.3618400077122 H 0.0 **** 0.06
8954 H 67.21575053638205 17.323308745305674 63.75532422553499 H 0.0 **** 0.06
8955 H 66.4602326760599 17.1581167096014 62.152749890807655 H 0.0 **** 0.06
8956 C 122.29239501750473 118.16623296263664 50.99513286634499 C 0.0 **** -0.24
8957 H 122.21610229379539 118.79378447528948 51.8826941036607 H 0.0 **** 0.06
8958 H 123.12151689827448 118.51084457007676 50.37649867589687 H 0.0 **** 0.06
8959 H 121.3642390275549 118.22796686454839 50.42591593063037 H 0.0 **** 0.06
8960 H 122.46642500057271 117.13301081354076 51.29449383380404 H 0.0 **** 0.06
8961 C 11.697304234732371 69.3206562668876 42.00470999924224 C 0.0 **** -0.24
8962 H 12.616144654315406 69.81512068841477 42.320375496089895 H 0.0 **** 0.06
8963 H 11.7613605613995 69.0784779686419 40.94405835615183 H 0.0 **** 0.06
8964 H 10.849715093448424 69.98561224021793 42.1753492668924 H 0.0 **** 0.06
8965 H 11.561658735939687 68.40475927094553 42.579333724089594 H 0.0 **** 0.06
8966 C 67.85582091305125 74.2442050032754 73.76556218096383 C 0.0 **** -0.24
8967 H 67.44464843888866 73.85230243234453 74.6963688709568 H 0.0 **** 0.06
8968 H 67.70111396489895 73.51771935230592 72.96686579664339 H 0.0 **** 0.06
8969 H 68.92292855446848 74.42770654476661 73.88865525255915 H 0.0 **** 0.06
8970 H 67.35325209036587 75.1770488681517 73.51053207350733 H 0.0 **** 0.06
8971 C 124.56379367457612 54.882763906100394 6.9223440768719655 C 0.0 **** -0.24
8972 H 125.46851068145423 54.34044658317549 7.19750683127161 H 0.0 **** 0.06
8973 H 124.76683276331411 55.95453377062337 6.929348345127536 H 0.0 **** 0.06
8974 H 123.77318549432451 54.65732738230993 7.638081844580768 H 0.0 **** 0.06
8975 H 124.24664575921167 54.57874788829298 5.924439286508004 H 0.0 **** 0.06
8976 C 113.89233553943934 62.00087134835829 65.60373428440454 C 0.0 **** -0.24
8977 H 113.14737067687854 61.77162136857254 64.8430502752633 H 0.0 **** 0.06
8978 H 114.88791501713688 61.96706395581228 65.15972965663315 H 0.0 **** 0.06
8979 H 113.82759211057713 61.26798029117822 66.40786577101562 H 0.0 **** 0.06
8980 H 113.70719545115189 62.997850377396674 66.00547614065954 H 0.0 **** 0.06
8981 C 75.15819239245346 52.5221131595776 71.53031698836566 C 0.0 **** -0.24
8982 H 74.1719312272829 52.272933699856964 71.92105468249461 H 0.0 **** 0.06
8983 H 75.38100413778861 51.88616532427022 70.67282423773038 H 0.0 **** 0.06
8984 H 75.90684023142413 52.36249157808322 72.30541940556675 H 0.0 **** 0.06
8985 H 75.17166344186492 53.56744234260114 71.22026868376759 H 0.0 **** 0.06
8986 C 94.20338201346866 22.692894095714564 107.09167252972571 C 0.0 **** -0.24
8987 H 95.27893433277886 22.62090300521197 107.25423937420894 H 0.0 **** 0.06
8988 H 94.01359844509365 23.145024538726204 106.11731282960227 H 0.0 **** 0.06
8989 H 93.7586923466223 23.309725514082118 107.8724481418621 H 0.0 **** 0.06
8990 H 93.76435185850485 21.695578930223576 107.12186299542589 H 0.0 **** 0.06
8991 C 3.730033845843593 119.77924894872132 7.0095291656992025 C 0.0 **** -0.24
8992 H 3.5466386237905567 119.48697105676354 5.975575928361106 H 0.0 **** 0.06
8993 H 2.7790603316304896 119.95503250579445 7.512319363452445 H 0.0 **** 0.06
8994 H 4.32586964887912 120.69218556506152 7.02818232210754 H 0.0 **** 0.06
8995 H 4.269921617165039 118.98251436364185 7.521000232151522 H 0.0 **** 0.06
8996 C 79.85786063726474 120.6432984512532 92.6343552407115 C 0.0 **** -0.24
8997 H 80.80155723089834 120.83264024693415 92.12245885202572 H 0.0 **** 0.06
8998 H 79.63114810527088 119.57758635415445 92.59577217356758 H 0.0 **** 0.06
8999 H 79.06101122354389 121.20271181241162 92.14492686342427 H 0.0 **** 0.06
9000 H 79.93908993182524 120.96056974018123 93.67446545397917 H 0.0 **** 0.06
9001 C 44.34817019470799 48.73007564581273 34.68642118574779 C 0.0 **** -0.24
9002 H 45.065792673678175 49.243621366636916 34.046714041295104 H 0.0 **** 0.06
9003 H 43.4642339492454 48.46928069705151 34.1035770967042 H 0.0 **** 0.06
9004 H 44.061514427070506 49.384066088298525 35.51000205300628 H 0.0 **** 0.06
9005 H 44.80130237773267 47.82206189398832 35.08479631579928 H 0.0 **** 0.06
9006 C 84.49694361989594 112.61179836931971 49.23653173343533 C 0.0 **** -0.24
9007 H 84.88652322459492 113.60935887956809 49.03402687241467 H 0.0 **** 0.06
9008 H 85.30256381485023 111.97485797354499 49.6051489371101 H 0.0 **** 0.06
9009 H 84.08980316593829 112.18718409362754 48.318672887562116 H 0.0 **** 0.06
9010 H 83.71027848409744 112.6748229447093 49.987937282213096 H 0.0 **** 0.06
9011 C 54.83004241923416 130.58284787046478 125.67960779678332 C 0.0 **** -0.24
9012 H 55.14437187422803 131.52635208897502 126.12495396570208 H 0.0 **** 0.06
9013 H 54.92466081851782 129.78460236990574 126.41597996167707 H 0.0 **** 0.06
9014 H 55.458820218461284 130.35982697083156 124.81830612944262 H 0.0 **** 0.06
9015 H 53.79026298617478 130.66028269704185 125.3604854115294 H 0.0 **** 0.06
9016 C 129.29325074666409 99.9172012996651 21.941722053501763 C 0.0 **** -0.24
9017 H 129.62916111908143 99.0298762201356 21.40603012602864 H 0.0 **** 0.06
9018 H 130.15862366763824 100.47520056685406 22.298141677611625 H 0.0 **** 0.06
9019 H 128.6780492565672 99.6180774046586 22.79027640386201 H 0.0 **** 0.06
9020 H 128.7065304083992 100.54581818433545 21.27083860315696 H 0.0 **** 0.06
9021 C 110.06792615964929 55.03967376946264 105.79507225699473 C 0.0 **** -0.24
9022 H 109.41265751250732 54.24045187255501 105.44888325898302 H 0.0 **** 0.06
9023 H 109.89989580348008 55.9338782145207 105.19410409675278 H 0.0 **** 0.06
9024 H 111.10670774205457 54.72589338616868 105.69651711291101 H 0.0 **** 0.06
9025 H 109.85244358055523 55.258471604606314 106.84078455933216 H 0.0 **** 0.06
9026 C 50.73539029062073 109.01876832344294 7.473305941242927 C 0.0 **** -0.24
9027 H 50.7175618708485 108.86399025731794 8.552364974641051 H 0.0 **** 0.06
9028 H 50.447976979204384 110.04661642558051 7.249153302932278 H 0.0 **** 0.06
9029 H 50.03524207553218 108.33329418885421 6.995777766057415 H 0.0 **** 0.06
9030 H 51.74165552605905 108.83159914717669 7.096155384411336 H 0.0 **** 0.06
9031 C 103.20227955042625 58.71735304294987 71.4827826506706 C 0.0 **** -0.24
9032 H 103.5934135150429 59.54106523470546 72.08025058811825 H 0.0 **** 0.06
9033 H 102.178295425642 58.500488942221295 71.78967682828284 H 0.0 **** 0.06
9034 H 103.82235917561107 57.83345749453579 71.63304376120652 H 0.0 **** 0.06
9035 H 103.21477870339785 58.99522289343528 70.42865950241367 H 0.0 **** 0.06
9036 C 124.00159537818494 28.41212444618045 89.62543164535191 C 0.0 **** -0.24
9037 H 123.86484856078326 29.287270184855863 90.26085018989741 H 0.0 **** 0.06
9038 H 123.3749548370324 28.506624227002433 88.73854332229863 H 0.0 **** 0.06
9039 H 123.71835263461989 27.515685291344802 90.17727933653273 H 0.0 **** 0.06
9040 H 125.04669445950739 28.340725179060357 89.32737558306914 H 0.0 **** 0.06
9041 C 116.00706389223575 30.08112391387462 40.53155723172645 C 0.0 **** -0.24
9042 H 116.97852386596765 29.934405461129785 40.059694249231285 H 0.0 **** 0.06
9043 H 115.33643764502517 30.58314970788976 39.83378718427636 H 0.0 **** 0.06
9044 H 116.12572711671777 30.693217849773163 41.42502265461954 H 0.0 **** 0.06
9045 H 115.58756462439197 29.113136081262894 40.80643795912468 H 0.0 **** 0.06
9046 C 46.90489436695543 78.82925943789851 103.7060402608912 C 0.0 **** -0.24
9047 H 46.311030365894936 79.65956105253251 104.08790965646182 H 0.0 **** 0.06
9048 H 47.77537867581162 79.21914710493954 103.17848254547374 H 0.0 **** 0.06
9049 H 46.299602610863275 78.23580319872895 103.02126583287031 H 0.0 **** 0.06
9050 H 47.232211608463246 78.20510451861614 104.53722405533415 H 0.0 **** 0.06
9051 C 96.277336727244 57.30231256379835 30.675088919216023 C 0.0 **** -0.24
9052 H 96.52702496666558 57.47506178468953 31.721454487036056 H 0.0 **** 0.06
9053 H 96.76849923280923 58.05429484804465 30.05665980701076 H 0.0 **** 0.06
9054 H 95.19792895721264 57.37034364355242 30.542099932770242 H 0.0 **** 0.06
9055 H 96.61827394672463 56.309685701874656 30.379578787254303 H 0.0 **** 0.06
9056 C 22.84940209482818 80.12083551005793 2.1061842425746704 C 0.0 **** -0.24
9057 H 22.004637922851487 79.84701060091601 1.4738853420147393 H 0.0 **** 0.06
9058 H 23.18458257573593 81.12599270276411 1.8490742049934568 H 0.0 **** 0.06
9059 H 23.664071975325726 79.41432550922315 1.9500528080899642 H 0.0 **** 0.06
9060 H 22.54382664138774 80.09688308439928 3.1517880608607953 H 0.0 **** 0.06
9061 C 58.52112030835087 10.577371760626022 93.87562099481079 C 0.0 **** -0.24
9062 H 58.960915016329466 10.549694281555816 92.87837324504 H 0.0 **** 0.06
9063 H 58.654702745836715 11.57054962223259 94.30490989693436 H 0.0 **** 0.06
9064 H 59.01009887824398 9.836993055220418 94.50933531727105 H 0.0 **** 0.06
9065 H 57.456335884479785 10.350995318218395 93.80827570914477 H 0.0 **** 0.06
9066 C 15.246199468699672 3.026535235950746 44.16409563813801 C 0.0 **** -0.24
9067 H 15.854304243169082 2.7312319451532403 45.01916582326237 H 0.0 **** 0.06
9068 H 15.792861655414839 3.754982714328321 43.56545118571839 H 0.0 **** 0.06
9069 H 14.314815265724832 3.4701919028142356 44.5161080024796 H 0.0 **** 0.06
9070 H 15.024413778347594 2.148955185051932 43.55657539235335 H 0.0 **** 0.06
9071 C 88.08885570652295 97.39339937129867 7.566858527556178 C 0.0 **** -0.24
9072 H 87.48577367379981 96.49793064832583 7.71745502808227 H 0.0 **** 0.06
9073 H 88.92669404121219 97.38835771519129 8.265370573140927 H 0.0 **** 0.06
9074 H 87.47625951364478 98.27786937279691 7.740582936818356 H 0.0 **** 0.06
9075 H 88.46764920392835 97.40859907789167 6.544645264721993 H 0.0 **** 0.06
9076 C 83.68685191805008 129.22474234535437 129.70222081554178 C 0.0 **** -0.24
9077 H 83.28128375061118 130.09443446745402 130.21990564789732 H 0.0 **** 0.06
9078 H 84.77403920369136 129.29633762998918 129.66958043494688 H 0.0 **** 0.06
9079 H 83.2942172089177 129.19136387200072 128.68617735909694 H 0.0 **** 0.06
9080 H 83.3973105769065 128.31844906831247 130.23350204196035 H 0.0 **** 0.06
9081 C 51.71651309555803 61.91165807535293 48.47632707497635 C 0.0 **** -0.24
9082 H 50.96021689335036 61.57471876778298 47.76704260818573 H 0.0 **** 0.06
9083 H 51.394764353667256 61.67266237064263 49.4904864949232 H 0.0 **** 0.06
9084 H 51.84966501320096 62.98856800411835 48.38080766805609 H 0.0 **** 0.06
9085 H 52.660605459183316 61.40841747682505 48.266496176651316 H 0.0 **** 0.06
9086 C 106.7563501609065 57.85030312623326 73.86099610446543 C 0.0 **** -0.24
9087 H 106.31611535277706 58.74544274456068 73.42315278369294 H 0.0 **** 0.06
9088 H 106.01892084249894 57.04752706586484 73.86447114559529 H 0.0 **** 0.06
9089 H 107.0676566376922 58.062302266075534 74.88406068455362 H 0.0 **** 0.06
9090 H 107.62244747681505 57.546465435653374 73.27358693478492 H 0.0 **** 0.06
9091 C 28.006504583949408 69.29517478914593 111.4264315604829 C 0.0 **** -0.24
9092 H 27.27421699373363 68.77577610325639 112.04496885788136 H 0.0 **** 0.06
9093 H 28.794902133311098 68.59940331206931 111.13618523973163 H 0.0 **** 0.06
9094 H 28.43902120705161 70.120522429381 111.99126876608945 H 0.0 **** 0.06
9095 H 27.516497401768362 69.68297500472639 110.5333708564343 H 0.0 **** 0.06
9096 C 26.728817018266227 28.591946023839057 94.18833176181096 C 0.0 **** -0.24
9097 H 27.113670652160806 29.14249517301232 95.046203390768 H 0.0 **** 0.06
9098 H 27.41422659514626 28.705016918404056 93.34783357319668 H 0.0 **** 0.06
9099 H 25.749145017548983 28.983913557480548 93.91463904272993 H 0.0 **** 0.06
9100 H 26.638601880158205 27.536590431799766 94.44554815182448 H 0.0 **** 0.06
9101 C 119.2981195722298 42.08837079243088 91.21075371351097 C 0.0 **** -0.24
9102 H 120.14626279174499 41.97724613287204 91.88702652189482 H 0.0 **** 0.06
9103 H 119.65781246510983 42.14089124229443 90.18352197126043 H 0.0 **** 0.06
9104 H 118.75763547343593 43.003891026899 91.45430287402732 H 0.0 **** 0.06
9105 H 118.6320487319567 41.233241706206115 91.32043637159677 H 0.0 **** 0.06
9106 C 111.51205418684896 92.64796925801005 117.22344778703805 C 0.0 **** -0.24
9107 H 110.95610264556709 91.84081720795596 116.74707410151652 H 0.0 **** 0.06
9108 H 111.31035456969073 92.64388944619219 118.29475871586962 H 0.0 **** 0.06
9109 H 111.2006560326108 93.6024805797272 116.79776849360297 H 0.0 **** 0.06
9110 H 112.57873691355269 92.50432783194277 117.05238186735664 H 0.0 **** 0.06
9111 C 41.77041754244979 80.90569239581495 25.072346773553875 C 0.0 **** -0.24
9112 H 41.227226593814805 81.74379752930321 25.508604531225387 H 0.0 **** 0.06
9113 H 42.378104421685634 80.42762876787742 25.840820136525537 H 0.0 **** 0.06
9114 H 42.41468776261806 81.26731346264171 24.271701103419787 H 0.0 **** 0.06
9115 H 41.06016666308432 80.1831689664723 24.668495148043206 H 0.0 **** 0.06
9116 C 78.19739358304781 17.93413778233888 8.765149123403148 C 0.0 **** -0.24
9117 H 78.94645749366856 17.544481801563066 8.075066517992923 H 0.0 **** 0.06
9118 H 77.44396766560499 17.16888773621403 8.95245165087789 H 0.0 **** 0.06
9119 H 77.72286358182038 18.81248335993031 8.327352587386656 H 0.0 **** 0.06
9120 H 78.67711940662224 18.210283062223596 9.704265410724702 H 0.0 **** 0.06
9121 C 40.634603670895885 88.59443280453337 50.37398917053886 C 0.0 **** -0.24
9122 H 39.875248541591446 88.91696122118674 51.0856229385638 H 0.0 **** 0.06
9123 H 40.63436168598138 87.50604763428962 50.30968390873238 H 0.0 **** 0.06
9124 H 41.61384892665715 88.93835506135665 50.708352341859495 H 0.0 **** 0.06
9125 H 40.417190690329186 89.01659024144382 49.393274574777934 H 0.0 **** 0.06
9126 C 87.72171660510526 84.78629608975345 86.37965472084997 C 0.0 **** -0.24
9127 H 88.24231485956318 83.93792193764853 86.8229764775858 H 0.0 **** 0.06
9128 H 88.37326507640296 85.27122136919095 85.65173191384196 H 0.0 **** 0.06
9129 H 87.4557915111535 85.49842319455757 87.16108310612032 H 0.0 **** 0.06
9130 H 86.81675082134097 84.43798013416185 85.88228728094916 H 0.0 **** 0.06
9131 C 53.13508761040198 20.521450820585414 82.9133565733263 C 0.0 **** -0.24
9132 H 52.82286601262447 21.40178803018975 82.35151269530715 H 0.0 **** 0.06
9133 H 53.41310766579525 20.816695289082034 83.92551667366106 H 0.0 **** 0.06
9134 H 53.99253973996571 20.062699994374242 82.42086494757663 H 0.0 **** 0.06
9135 H 52.31386490165063 19.806784739736784 82.95508255606273 H 0.0 **** 0.06
9136 C 92.83138676862649 97.90236281949447 7.647656261569651 C 0.0 **** -0.24
9137 H 92.3602828536737 97.35328048778933 6.832156301689466 H 0.0 **** 0.06
9138 H 92.25304797874529 97.76234290086927 8.561481296892808 H 0.0 **** 0.06
9139 H 92.86678008257624 98.96274509104398 7.39800207094828 H 0.0 **** 0.06
9140 H 93.84497136067519 97.52985946386775 7.797472882527657 H 0.0 **** 0.06
9141 C 21.037232337196144 35.93007711729135 78.53151379259418 C 0.0 **** -0.24
9142 H 20.55046544441393 36.89203538983017 78.6926651292786 H 0.0 **** 0.06
9143 H 20.290071155569308 35.18529558199566 78.25936118422416 H 0.0 **** 0.06
9144 H 21.542762478389022 35.62107992677406 79.44742677146272 H 0.0 **** 0.06
9145 H 21.767811772573907 36.023178269155096 77.72786751302121 H 0.0 **** 0.06
9146 C 18.936399068932246 128.73753692885006 94.78865847942623 C 0.0 **** -0.24
9147 H 18.48600120018378 129.72261535598318 94.67039744317432 H 0.0 **** 0.06
9148 H 19.901575478157326 128.71546601622788 94.28299077830246 H 0.0 **** 0.06
9149 H 18.28066792095393 127.98386410900983 94.35395243069803 H 0.0 **** 0.06
9150 H 19.076916064230687 128.52809528577666 95.84896627834948 H 0.0 **** 0.06
9151 C 105.61481501865634 112.20229745462596 124.24193096219395 C 0.0 **** -0.24
9152 H 105.92480094484355 111.37762378744469 124.88455262067595 H 0.0 **** 0.06
9153 H 106.20650698615061 113.08722315106836 124.4758595550758 H 0.0 **** 0.06
9154 H 104.55953475492733 112.41584228588144 124.40886383110609 H 0.0 **** 0.06
9155 H 105.76994105942855 111.92664487983622 123.19796298342953 H 0.0 **** 0.06
9156 C 37.38600876797898 53.56627548150199 14.763628164043268 C 0.0 **** -0.24
9157 H 37.890249332289 54.49638952673904 14.500771157171073 H 0.0 **** 0.06
9158 H 36.80468897252639 53.7122262913347 15.674100641014775 H 0.0 **** 0.06
9159 H 38.12751695289762 52.784394210557295 14.92646162582821 H 0.0 **** 0.06
9160 H 36.72117519109847 53.272405182511406 13.9507837221376 H 0.0 **** 0.06
9161 C 59.11637435666613 84.92405154832542 48.5209950561902 C 0.0 **** -0.24
9162 H 60.04812827440281 85.18382572493722 49.02290884714853 H 0.0 **** 0.06
9163 H 58.7798591131496 83.9454509224229 48.864276007276004 H 0.0 **** 0.06
9164 H 59.27983068609004 84.89616125630995 47.443728318622135 H 0.0 **** 0.06
9165 H 58.35829038410587 85.67126971664501 48.75367964286187 H 0.0 **** 0.06
9166 C 20.19503848449719 45.23750076428905 63.01366239319228 C 0.0 **** -0.24
9167 H 20.13509584492101 44.63721951414817 62.10588666984049 H 0.0 **** 0.06
9168 H 20.885581342361093 46.06627624962573 62.85583573073387 H 0.0 **** 0.06
9169 H 20.551762412489694 44.617779050349725 63.83607863952409 H 0.0 **** 0.06
9170 H 19.206605731825675 45.628346104084414 63.25557372698324 H 0.0 **** 0.06
9171 C 2.017493307566923 72.36111505988514 93.4977063806302 C 0.0 **** -0.24
9172 H 2.6667514539001047 72.79329263803079 94.25984805377307 H 0.0 **** 0.06
9173 H 1.1516434500599075 71.90365264530217 93.97725896369428 H 0.0 **** 0.06
9174 H 2.567054634784 71.60428689165886 92.9393795467906 H 0.0 **** 0.06
9175 H 1.6849028985279233 73.14525790629968 92.81817783929114 H 0.0 **** 0.06
9176 C 113.80686975521151 42.415539312464254 108.65690122952235 C 0.0 **** -0.24
9177 H 114.80278499242588 42.83763707858401 108.79233313095806 H 0.0 **** 0.06
9178 H 113.67932136834362 41.56539810561561 109.3284046986652 H 0.0 **** 0.06
9179 H 113.69128639175251 42.08409838163372 107.62514745841858 H 0.0 **** 0.06
9180 H 113.05666906721565 43.172813990389756 108.88238826695914 H 0.0 **** 0.06
9181 C 123.19776429341854 48.319828388304416 80.9206350693785 C 0.0 **** -0.24
9182 H 124.1847401970584 48.298428392506594 80.45749780041459 H 0.0 **** 0.06
9183 H 122.87977086556054 49.354299109276894 81.0496543135203 H 0.0 **** 0.06
9184 H 123.24172197000878 47.82809171369556 81.89291809884011 H 0.0 **** 0.06
9185 H 122.48534999245595 47.79780097447633 80.28197733394944 H 0.0 **** 0.06
9186 C 60.65095869214673 124.02936106366414 58.86796485313181 C 0.0 **** -0.24
9187 H 61.43117503267786 124.72638349377979 58.56151145488113 H 0.0 **** 0.06
9188 H 60.57060453380177 123.2283886806564 58.13365029395793 H 0.0 **** 0.06
9189 H 59.69909652444352 124.55689155462301 58.93686709551403 H 0.0 **** 0.06
9190 H 60.90286223383413 123.60752689272692 59.84122383059828 H 0.0 **** 0.06
9191 C 117.09983518328679 21.191966849618666 35.91298398332069 C 0.0 **** -0.24
9192 H 116.25278819438795 21.553892189387085 36.494627209971476 H 0.0 **** 0.06
9193 H 116.73516446442495 20.64068810233539 35.04483905462489 H 0.0 **** 0.06
9194 H 117.70984320738764 20.533526765224366 36.530961575557114 H 0.0 **** 0.06
9195 H 117.70042607919143 22.038009795681887 35.58068093960906 H 0.0 **** 0.06
9196 C 108.32016136890792 78.87153978827793 55.152511879395576 C 0.0 **** -0.24
9197 H 108.6469669798125 77.94477320172432 55.623175461102136 H 0.0 **** 0.06
9198 H 108.26577383202284 78.73020385413655 54.07235739657207 H 0.0 **** 0.06
9199 H 109.03143045756035 79.66563057300344 55.37998624243983 H 0.0 **** 0.06
9200 H 107.33591554762222 79.1448627780125 55.53273572313461 H 0.0 **** 0.06
9201 C 47.82025170395238 109.19260270257321 42.684913809121525 C 0.0 **** -0.24
9202 H 48.119451444981536 109.96541128752546 43.392904536574775 H 0.0 **** 0.06
9203 H 47.999413526902295 108.21030317069737 43.12179265705089 H 0.0 **** 0.06
9204 H 48.40317794650456 109.29492634423268 41.769172917915995 H 0.0 **** 0.06
9205 H 46.76036357497401 109.30147098722635 42.455400610170756 H 0.0 **** 0.06
9206 C 93.23254247351332 67.70962906211884 122.08841418423145 C 0.0 **** -0.24
9207 H 93.3809044481531 68.10889504267305 121.08521537253034 H 0.0 **** 0.06
9208 H 92.56011944608696 66.8519684205628 122.04287232202364 H 0.0 **** 0.06
9209 H 92.79681210358694 68.48008130869795 122.72531755690403 H 0.0 **** 0.06
9210 H 94.19138503964177 67.39760648812717 122.50170014457825 H 0.0 **** 0.06
9211 C 5.899469510740083 63.610596882284256 75.56158905167236 C 0.0 **** -0.24
9212 H 5.063052956632095 64.20768303886868 75.92564807099326 H 0.0 **** 0.06
9213 H 5.685686110489836 63.26486297397197 74.55052171566439 H 0.0 **** 0.06
9214 H 6.044513590979992 62.75147530733271 76.21664692006316 H 0.0 **** 0.06
9215 H 6.8042348654550935 64.21915336210152 75.55464764997298 H 0.0 **** 0.06
9216 C 86.59225518212935 36.30811671698535 43.199929418462915 C 0.0 **** -0.24
9217 H 87.15054932376091 36.21141757841201 42.2687058125162 H 0.0 **** 0.06
9218 H 86.64410938518836 37.33979244118376 43.548424516271155 H 0.0 **** 0.06
9219 H 87.0239483056298 35.64713483497118 43.9520680472242 H 0.0 **** 0.06
9220 H 85.55168092500134 36.033355568921394 43.029621017889724 H 0.0 **** 0.06
9221 C 28.148261712247873 80.28620016526654 35.04265214572256 C 0.0 **** -0.24
9222 H 28.140768453918554 79.55421117843659 35.85002530742553 H 0.0 **** 0.06
9223 H 28.877415853716514 79.98821590572229 34.28904077053803 H 0.0 **** 0.06
9224 H 28.415197892707653 81.2640146277534 35.440982796018226 H 0.0 **** 0.06
9225 H 27.15750563257717 80.33592250932506 34.58900950314723 H 0.0 **** 0.06
9226 C 3.5612865110101666 16.459760664221164 26.152126436362508 C 0.0 **** -0.24
9227 H 4.233066535071714 16.525768893672648 25.296410378907872 H 0.0 **** 0.06
9228 H 4.067431651403865 16.83648325539565 27.041344461074864 H 0.0 **** 0.06
9229 H 3.2729984187415653 15.42104500543752 26.30945460425051 H 0.0 **** 0.06
9230 H 2.6704194051301897 17.05918378047187 25.960480185932333 H 0.0 **** 0.06
9231 C 35.780883639538445 66.1881870784361 30.354752717538318 C 0.0 **** -0.24
9232 H 35.092978324038796 67.01968371192189 30.509203728573013 H 0.0 **** 0.06
9233 H 36.76022410394515 66.44723928207401 30.758332617441496 H 0.0 **** 0.06
9234 H 35.86940563212704 65.98375248371647 29.287684850920648 H 0.0 **** 0.06
9235 H 35.40084462981244 65.30308663189913 30.864772336655477 H 0.0 **** 0.06
9236 C 67.89814308249055 14.99691660629334 97.53417314079466 C 0.0 **** -0.24
9237 H 67.26842656292487 15.579850162528189 96.86158033748215 H 0.0 **** 0.06
9238 H 68.93809964635366 15.299548348212042 97.41090167497136 H 0.0 **** 0.06
9239 H 67.79704217101457 13.937129912149572 97.29950048116893 H 0.0 **** 0.06
9240 H 67.58807980803292 15.171386662859021 98.56441992113947 H 0.0 **** 0.06
9241 C 97.83143932845148 34.13044372215421 19.033946773791484 C 0.0 **** -0.24
9242 H 98.37179006376377 33.84942323922786 18.130186838836693 H 0.0 **** 0.06
9243 H 97.00990279370417 34.797964998833095 18.77343083918845 H 0.0 **** 0.06
9244 H 98.51062848036972 34.64008843329583 19.718980318433836 H 0.0 **** 0.06
9245 H 97.43554750023559 33.23544896798438 19.513655546702665 H 0.0 **** 0.06
9246 C 48.98876073951416 35.01730003145295 72.44955829536264 C 0.0 **** -0.24
9247 H 49.560209357641355 34.107220720780504 72.26885533923056 H 0.0 **** 0.06
9248 H 48.588580777186024 35.38850902633757 71.50612184043649 H 0.0 **** 0.06
9249 H 49.638947718771874 35.772849335257405 72.89124896083115 H 0.0 **** 0.06
9250 H 48.167102661158 34.80106815329907 73.13287834195114 H 0.0 **** 0.06
9251 C 109.31673543608287 121.36078236919099 18.971872805958185 C 0.0 **** -0.24
9252 H 110.23799672321195 120.78240876861014 19.030370737205487 H 0.0 **** 0.06
9253 H 109.37841063825886 122.06195990126656 18.139883813955436 H 0.0 **** 0.06
9254 H 109.17456146776436 121.9114403402886 19.90199637692382 H 0.0 **** 0.06
9255 H 108.4743072211804 120.68689443348171 18.816985086640017 H 0.0 **** 0.06
9256 C 48.23246284402049 1.7062285181369816 4.1807354966293175 C 0.0 **** -0.24
9257 H 48.635420752312996 2.643877831933395 4.563665207401979 H 0.0 **** 0.06
9258 H 48.686827117181 0.8716043699653824 4.714371226256155 H 0.0 **** 0.06
9259 H 48.45650236636925 1.6231578502347475 3.1169751577604963 H 0.0 **** 0.06
9260 H 47.153154652964275 1.6873407825140418 4.327127002465755 H 0.0 **** 0.06
9261 C 86.2343927476368 3.880883585617635 21.205851728507724 C 0.0 **** -0.24
9262 H 86.44767862615564 2.875076945896776 20.844318061010227 H 0.0 **** 0.06
9263 H 85.91929604126136 3.83324135316445 22.248239734206138 H 0.0 **** 0.06
9264 H 85.43986560031044 4.322728962573816 20.60449347725202 H 0.0 **** 0.06
9265 H 87.13369514281203 4.492285891440034 21.125272915174946 H 0.0 **** 0.06
9266 C 50.88770245933168 77.2191013754585 43.7584322317461 C 0.0 **** -0.24
9267 H 51.20115595001937 77.92279973839436 42.98727985132169 H 0.0 **** 0.06
9268 H 51.275709523513655 76.22717742259304 43.52412062269855 H 0.0 **** 0.06
9269 H 49.7977406588183 77.18342717243364 43.79613157160111 H 0.0 **** 0.06
9270 H 51.273949725130706 77.54276240234034 44.72399163191818 H 0.0 **** 0.06
9271 C 6.520036691931551 52.02380962802967 49.28882026356408 C 0.0 **** -0.24
9272 H 5.953184925942452 51.61203186067249 48.453885769437825 H 0.0 **** 0.06
9273 H 6.866916039684185 53.02544124896397 49.03267119505418 H 0.0 **** 0.06
9274 H 7.376783495935115 51.383542226386965 49.49690195541994 H 0.0 **** 0.06
9275 H 5.881699032974836 52.07389559841583 50.170618351309415 H 0.0 **** 0.06
9276 C 99.43890035905878 28.74702118690044 64.67006232032686 C 0.0 **** -0.24
9277 H 98.74768661232446 29.589953087912477 64.66914149133544 H 0.0 **** 0.06
9278 H 99.52712753075548 28.348600717423665 63.659007128034204 H 0.0 **** 0.06
9279 H 99.06435482884282 27.970315601935567 65.33607395324324 H 0.0 **** 0.06
9280 H 100.41830491229985 29.080349266428584 65.01557016747606 H 0.0 **** 0.06
9281 C 61.894915695690315 130.7895516398894 94.74915465976864 C 0.0 **** -0.24
9282 H 62.94385305971156 131.07954695986214 94.67915712030393 H 0.0 **** 0.06
9283 H 61.804369188806106 129.90074625947219 95.37339322091141 H 0.0 **** 0.06
9284 H 61.51092093825906 130.5751225054603 93.75152262553 H 0.0 **** 0.06
9285 H 61.32189953357448 131.6045925008491 95.19085741312055 H 0.0 **** 0.06
9286 C 14.734877135559799 103.85401036043316 36.29527046651262 C 0.0 **** -0.24
9287 H 15.82324560453705 103.83328376924356 36.33406303094196 H 0.0 **** 0.06
9288 H 14.340229586050356 102.91117419192321 36.675783038631636 H 0.0 **** 0.06
9289 H 14.410982020880425 103.99436957592934 35.26420369231079 H 0.0 **** 0.06
9290 H 14.364327340084486 104.67649967834018 36.908014870761576 H 0.0 **** 0.06
9291 C 73.18413800595286 40.6194775388461 94.71431592448974 C 0.0 **** -0.24
9292 H 73.78815760932679 41.30119996882931 95.31350816877064 H 0.0 **** 0.06
9293 H 72.6995662981166 41.175166539495336 93.91100620267889 H 0.0 **** 0.06
9294 H 72.42475040609858 40.15702273258702 95.34636465857656 H 0.0 **** 0.06
9295 H 73.82285952315473 39.846227188803 94.28931815994791 H 0.0 **** 0.06
9296 C 71.00038853412391 84.16927505154624 76.75203836663894 C 0.0 **** -0.24
9297 H 70.26346470486274 83.46817399668075 77.14484505549247 H 0.0 **** 0.06
9298 H 70.52057643694374 84.83686745686315 76.03639026976445 H 0.0 **** 0.06
9299 H 71.79835572800499 83.61714892527105 76.25667435396767 H 0.0 **** 0.06
9300 H 71.4173180423634 84.75416831465311 77.57127707941684 H 0.0 **** 0.06
9301 C 2.4073399203137456 54.09554803766473 95.36488911848687 C 0.0 **** -0.24
9302 H 3.3450757050620155 53.85645292987931 94.86386360446681 H 0.0 **** 0.06
9303 H 1.6545664288306057 53.353697727835836 95.09990117710406 H 0.0 **** 0.06
9304 H 2.0701013238606265 55.08408626276763 95.05119205816158 H 0.0 **** 0.06
9305 H 2.560483656262079 54.08900598686736 96.44422071116092 H 0.0 **** 0.06
9306 C 80.70981865673727 95.30554838714122 13.349025058725204 C 0.0 **** -0.24
9307 H 80.94280955690279 94.75309716900654 12.439002347386548 H 0.0 **** 0.06
9308 H 81.57783661458996 95.29928968228165 14.009244866695155 H 0.0 **** 0.06
9309 H 79.86636681858184 94.83489322434696 13.853815276384125 H 0.0 **** 0.06
9310 H 80.45432111569906 96.33389405534967 13.09488607836883 H 0.0 **** 0.06
9311 C 105.4005088807422 17.880584353777067 72.21737980164913 C 0.0 **** -0.24
9312 H 106.01826889639102 17.01283308413315 71.98829529621428 H 0.0 **** 0.06
9313 H 105.97930249020317 18.59189260497473 72.80823605260665 H 0.0 **** 0.06
9314 H 104.52477187033145 17.564550986453767 72.78400141701361 H 0.0 **** 0.06
9315 H 105.08164843279533 18.35414410602658 71.28898353316478 H 0.0 **** 0.06
9316 C 102.41695943515589 48.09023491257045 91.68605597246051 C 0.0 **** -0.24
9317 H 103.42645153432062 48.40497597848628 91.95051812730648 H 0.0 **** 0.06
9318 H 102.46913908738492 47.25551237373253 90.98615018834677 H 0.0 **** 0.06
9319 H 101.88739090983108 48.92293474564946 91.22132515794164 H 0.0 **** 0.06
9320 H 101.88677150723214 47.77839835021766 92.58548587249851 H 0.0 **** 0.06
9321 C 73.51513737923239 119.42177461514856 108.01081560921514 C 0.0 **** -0.24
9322 H 73.93117773134298 118.85590379284154 107.17818902929491 H 0.0 **** 0.06
9323 H 72.83409153264597 118.78617831419153 108.57672228361798 H 0.0 **** 0.06
9324 H 72.97228883081976 120.28618418364802 107.62841265155069 H 0.0 **** 0.06
9325 H 74.3229747613687 119.75802293167212 108.66052576434925 H 0.0 **** 0.06
9326 C 78.66187916201567 59.25064623931149 38.522597791952094 C 0.0 **** -0.24
9327 H 79.30769531666266 58.89307587821611 39.32479192081652 H 0.0 **** 0.06
9328 H 79.21474258420041 59.24647799257889 37.582595027228116 H 0.0 **** 0.06
9329 H 78.33353583759478 60.265858919370146 38.74598167672978 H 0.0 **** 0.06
9330 H 77.79305114871829 58.59882059177403 38.436932041354694 H 0.0 **** 0.06
9331 C 41.5874448343489 72.13010550314635 105.3182815476774 C 0.0 **** -0.24
9332 H 40.80142778700059 72.43914723818907 104.62998014553037 H 0.0 **** 0.06
9333 H 41.44987160413848 71.07933136277532 105.57712298746682 H 0.0 **** 0.06
9334 H 41.53891449876977 72.73670169207355 106.22215504266586 H 0.0 **** 0.06
9335 H 42.559341481204 72.26242299309396 104.84286545640626 H 0.0 **** 0.06
9336 C 46.77567668362434 108.37836693424019 26.74376047921183 C 0.0 **** -0.24
9337 H 47.022078711347774 108.27173880424596 27.7994175553346 H 0.0 **** 0.06
9338 H 46.377159572852236 109.37678607760454 26.56316478244304 H 0.0 **** 0.06
9339 H 46.029886417193154 107.63351841592862 26.467006067232717 H 0.0 **** 0.06
9340 H 47.674423059460196 108.23303687141038 26.143812453437448 H 0.0 **** 0.06
9341 C 109.8237502963373 119.69536556908152 7.89660150631525 C 0.0 **** -0.24
9342 H 110.13649318869773 119.02909496383577 8.700556624223822 H 0.0 **** 0.06
9343 H 108.75721638887612 119.56470689026156 7.710176530303187 H 0.0 **** 0.06
9344 H 110.38231032058351 119.45763189320631 6.990375838736014 H 0.0 **** 0.06
9345 H 110.01944063661469 120.72831930080214 8.182874628121283 H 0.0 **** 0.06
9346 C 20.835484767742315 101.87634352986731 18.61838894463085 C 0.0 **** -0.24
9347 H 20.380558072914738 101.56524122564105 19.559089513095415 H 0.0 **** 0.06
9348 H 21.380372379723582 102.80875558823578 18.77080873679003 H 0.0 **** 0.06
9349 H 20.05739041934163 102.02709184401897 17.87153187659689 H 0.0 **** 0.06
9350 H 21.52489627011937 101.10439475956605 18.275640672869457 H 0.0 **** 0.06
9351 C 98.3028387564002 123.54776578857363 41.910240506004044 C 0.0 **** -0.24
9352 H 98.88235487265297 124.47090204536329 41.8813955071229 H 0.0 **** 0.06
9353 H 97.69855206119496 123.46998050959607 41.00567675184914 H 0.0 **** 0.06
9354 H 97.6504261995014 123.55607176966302 42.78367073406409 H 0.0 **** 0.06
9355 H 98.97983689655794 122.69551092982687 41.97022094088254 H 0.0 **** 0.06
9356 C 4.881000759870574 46.21307541272255 60.151447127544046 C 0.0 **** -0.24
9357 H 4.885640745741966 46.06330429227171 59.07153111993229 H 0.0 **** 0.06
9358 H 5.904794240835599 46.35178872655555 60.503023800107385 H 0.0 **** 0.06
9359 H 4.444381494262132 45.34127121628202 60.6377325133695 H 0.0 **** 0.06
9360 H 4.2911678876724295 47.098093557763754 60.39284847384866 H 0.0 **** 0.06
9361 C 97.2210966406501 124.32088961336213 56.71907860215305 C 0.0 **** -0.24
9362 H 96.81688831888462 125.32956571980154 56.634045601458354 H 0.0 **** 0.06
9363 H 96.83345091489579 123.7050600680378 55.907290295285065 H 0.0 **** 0.06
9364 H 96.92470389842103 123.88986873244173 57.67630841453189 H 0.0 **** 0.06
9365 H 98.3086172679343 124.3590827073964 56.65935740480273 H 0.0 **** 0.06
9366 C 94.77833430281049 49.13320158197536 34.20314537476221 C 0.0 **** -0.24
9367 H 95.61150886906773 48.52204742830287 34.54878414466212 H 0.0 **** 0.06
9368 H 95.10361141546556 49.752466989701645 33.36610909934365 H 0.0 **** 0.06
9369 H 94.43552852430116 49.7730164036804 35.01691236681551 H 0.0 **** 0.06
9370 H 93.96187203900604 48.48637938700091 33.88043660971516 H 0.0 **** 0.06
9371 C 83.49792369152797 28.829631314522032 93.96847516715196 C 0.0 **** -0.24
9372 H 83.19926044652985 28.241247114336318 94.83584345542727 H 0.0 **** 0.06
9373 H 84.22961701372398 28.270780430964578 93.38443571608646 H 0.0 **** 0.06
9374 H 83.9401045679038 29.76910917084291 94.30203471587929 H 0.0 **** 0.06
9375 H 82.62303940748794 29.037677437830666 93.35248671573031 H 0.0 **** 0.06
9376 C 2.6632416592537886 4.166211984315019 64.44345585422974 C 0.0 **** -0.24
9377 H 3.6116390703161407 3.686794717090315 64.68587058572473 H 0.0 **** 0.06
9378 H 2.4663844109763353 4.963810340872321 65.15995607437992 H 0.0 **** 0.06
9379 H 1.8619926466079733 3.429923152833588 64.48956596413154 H 0.0 **** 0.06
9380 H 2.71496393024351 4.585138800058942 63.438955705579076 H 0.0 **** 0.06
9381 C 27.872173806253514 65.68840397080717 98.73402655953787 C 0.0 **** -0.24
9382 H 28.373493426252168 66.65628621334236 98.72194012710403 H 0.0 **** 0.06
9383 H 28.27888595666984 65.05848625661518 97.94237675345637 H 0.0 **** 0.06
9384 H 26.80359064036608 65.8305294971028 98.57320425836835 H 0.0 **** 0.06
9385 H 28.03362918226877 65.20790727557987 99.69871745691684 H 0.0 **** 0.06
9386 C 40.976996698115755 5.348902621557727 26.881545268684306 C 0.0 **** -0.24
9387 H 41.69119163613185 6.156369661913175 27.04698140167409 H 0.0 **** 0.06
9388 H 41.447167237601434 4.393680887909397 27.119863745132932 H 0.0 **** 0.06
9389 H 40.662852455171446 5.349916406793 25.837562096546435 H 0.0 **** 0.06
9390 H 40.107756779212906 5.496150132237005 27.522657282156445 H 0.0 **** 0.06
9391 C 42.55948103864168 129.93436720547038 128.67049024632547 C 0.0 **** -0.24
9392 H 43.48886459660136 129.36416413744524 128.67425556856242 H 0.0 **** 0.06
9393 H 42.046484326663204 129.79896746005355 129.6231857955117 H 0.0 **** 0.06
9394 H 41.92012944245302 129.5824988484032 127.86026884579508 H 0.0 **** 0.06
9395 H 42.78296685833638 130.9910695581967 128.5246215337846 H 0.0 **** 0.06
9396 C 92.81931297215947 101.29644298138382 60.95941551781526 C 0.0 **** -0.24
9397 H 92.52725064602336 101.23174294596393 59.911219935778036 H 0.0 **** 0.06
9398 H 92.2525126148939 100.56745503258075 61.53930985588569 H 0.0 **** 0.06
9399 H 92.61068127007047 102.2992377839121 61.33357447261449 H 0.0 **** 0.06
9400 H 93.88494286629465 101.08781945985504 61.05301899346419 H 0.0 **** 0.06
9401 C 100.775323990511 112.676065614732 15.973774665490922 C 0.0 **** -0.24
9402 H 99.90778521463281 112.77278393215666 16.62653381509734 H 0.0 **** 0.06
9403 H 101.00454261903923 113.64419170617599 15.528453251163125 H 0.0 **** 0.06
9404 H 100.55629701218845 111.95603868423679 15.18509989759513 H 0.0 **** 0.06
9405 H 101.63092181824337 112.33009152072984 16.554235504349606 H 0.0 **** 0.06
9406 C 100.94201647311093 33.993607726198604 118.13123209305877 C 0.0 **** -0.24
9407 H 99.92420763318307 33.60576634732601 118.15929712815677 H 0.0 **** 0.06
9408 H 101.6485736660386 33.16365530941678 118.1778422521221 H 0.0 **** 0.06
9409 H 101.10214587663211 34.655110593494754 118.98304547644636 H 0.0 **** 0.06
9410 H 101.0939088998453 34.549428607428126 117.20583254505397 H 0.0 **** 0.06
9411 C 115.56806055264573 8.176138555465354 3.4079997889106153 C 0.0 **** -0.24
9412 H 114.90906623504642 8.995472978665042 3.6922619320637864 H 0.0 **** 0.06
9413 H 116.57688992015437 8.380087324181485 3.767838247852751 H 0.0 **** 0.06
9414 H 115.58240100571786 8.081673913525488 2.321911723037317 H 0.0 **** 0.06
9415 H 115.20576070014263 7.247630636899178 3.849366231588874 H 0.0 **** 0.06
9416 C 52.404310928247625 24.392447743027333 99.19289212653598 C 0.0 **** -0.24
9417 H 52.65177502525165 25.154689176052898 98.45317795048122 H 0.0 **** 0.06
9418 H 52.209120034855744 23.446491476362297 98.68659696408102 H 0.0 **** 0.06
9419 H 51.51694722022326 24.698361062184233 99.74549240092458 H 0.0 **** 0.06
9420 H 53.239281279408914 24.27122247730108 99.8826902088343 H 0.0 **** 0.06
9421 C 60.568577022547544 103.0783174545604 58.80311613493784 C 0.0 **** -0.24
9422 H 60.66379006691827 102.39060254198463 57.9629761877471 H 0.0 **** 0.06
9423 H 61.24901806266476 103.91938100594395 58.66214917501031 H 0.0 **** 0.06
9424 H 60.818871922026375 102.55921437547184 59.72793875988876 H 0.0 **** 0.06
9425 H 59.54327548518495 103.44544118128947 58.85775537994344 H 0.0 **** 0.06
9426 C 89.50836489857852 62.89382350898896 9.742950378100971 C 0.0 **** -0.24
9427 H 89.973404947229 62.00453928719146 9.316714724080754 H 0.0 **** 0.06
9428 H 89.47692778287256 63.68202320147627 8.990728056431124 H 0.0 **** 0.06
9429 H 90.09163001139646 63.23201114992099 10.599619168714526 H 0.0 **** 0.06
9430 H 88.49508101621119 62.65542564330194 10.063165290074267 H 0.0 **** 0.06
9431 C 19.571114331237936 22.129145833927055 15.703916776423114 C 0.0 **** -0.24
9432 H 20.219479668421847 22.94280648552227 16.027382608362018 H 0.0 **** 0.06
9433 H 19.450954272118693 21.41343138667719 16.517363071758382 H 0.0 **** 0.06
9434 H 20.016734442923635 21.629616881857373 14.842995131710211 H 0.0 **** 0.06
9435 H 18.596069518236455 22.530303095095846 15.425844875158248 H 0.0 **** 0.06
9436 C 113.3643412673189 118.4658312024724 30.487533363915986 C 0.0 **** -0.24
9437 H 112.60229085905709 118.48930331569412 29.707738663561713 H 0.0 **** 0.06
9438 H 112.9270908862272 118.08357511571731 31.410459099718423 H 0.0 **** 0.06
9439 H 113.74203943170377 119.47457587488219 30.654840740819964 H 0.0 **** 0.06
9440 H 114.1826521505042 117.81715288478071 30.17586177768436 H 0.0 **** 0.06
9441 C 87.25630340335226 65.43004979062745 78.51577732891901 C 0.0 **** -0.24
9442 H 86.67904812059791 65.91726479861865 79.30217251931435 H 0.0 **** 0.06
9443 H 86.63680412840503 65.32422901550672 77.62424484104382 H 0.0 **** 0.06
9444 H 87.57503343155273 64.44598305252244 78.85616411937491 H 0.0 **** 0.06
9445 H 88.13173580215565 66.0344866375294 78.28011732843024 H 0.0 **** 0.06
9446 C 65.95751200083458 74.064185267207 90.32357409585414 C 0.0 **** -0.24
9447 H 67.02345860057403 74.05657671534004 90.09690825741727 H 0.0 **** 0.06
9448 H 65.64225608060241 73.06108528998277 90.61434672928114 H 0.0 **** 0.06
9449 H 65.40110883502535 74.3790179850455 89.44099133964785 H 0.0 **** 0.06
9450 H 65.76494090196087 74.75695281636638 91.1426772366714 H 0.0 **** 0.06
9451 C 115.72587082287608 6.74974889579822 10.949835413835785 C 0.0 **** -0.24
9452 H 115.52736353488727 6.3648025182989905 9.950108174302045 H 0.0 **** 0.06
9453 H 115.35733516394511 6.040592976434748 11.690950662973705 H 0.0 **** 0.06
9454 H 115.2196369784616 7.706964439015362 11.07763686548708 H 0.0 **** 0.06
9455 H 116.7998231597859 6.886231443253575 11.079471062189668 H 0.0 **** 0.06
9456 C 38.95239056107931 1.2188472368855585 65.94531329627569 C 0.0 **** -0.24
9457 H 38.520551601585396 1.403818380928005 64.96171161752244 H 0.0 **** 0.06
9458 H 38.20110883343352 1.4073490536569437 66.71305828807783 H 0.0 **** 0.06
9459 H 39.80383688460188 1.881680823614623 66.09849373140867 H 0.0 **** 0.06
9460 H 39.2833474300204 0.18176310000763607 66.00705110890357 H 0.0 **** 0.06
9461 C 92.75221881962652 79.08340818816183 36.69608304345646 C 0.0 **** -0.24
9462 H 92.93238772346513 79.33410495077246 37.741666992406294 H 0.0 **** 0.06
9463 H 92.79741715930037 79.99012966476823 36.092714373965926 H 0.0 **** 0.06
9464 H 91.76591263627368 78.62888158365121 36.597274100800796 H 0.0 **** 0.06
9465 H 93.51236322174148 78.38021431052877 36.354974030032594 H 0.0 **** 0.06
9466 C 92.088063755826 127.05273522133758 90.06754383583481 C 0.0 **** -0.24
9467 H 93.01641794308864 126.73007256586574 89.59646022272642 H 0.0 **** 0.06
9468 H 91.94216632859167 126.50186024901951 90.99630975546032 H 0.0 **** 0.06
9469 H 91.25313543365002 126.85852985462238 89.3944313409475 H 0.0 **** 0.06
9470 H 92.14188749086469 128.12064954979996 90.28120129949608 H 0.0 **** 0.06
9471 C 120.91670533720776 49.052878899582524 73.56560110630305 C 0.0 **** -0.24
9472 H 119.97731810181733 48.548738247346876 73.79620116786803 H 0.0 **** 0.06
9473 H 120.87754960083612 50.0789934705615 73.93062050543317 H 0.0 **** 0.06
9474 H 121.0699655283995 49.056733639925525 72.48619944199952 H 0.0 **** 0.06
9475 H 121.73913323014722 48.52522221443736 74.04779941577608 H 0.0 **** 0.06
9476 C 19.594028281125546 63.87437223733535 113.84788245702757 C 0.0 **** -0.24
9477 H 18.586282467838657 63.52979258453196 113.61830753207423 H 0.0 **** 0.06
9478 H 19.671212036023775 64.93945582522123 113.63077406349746 H 0.0 **** 0.06
9479 H 20.312899511320865 63.32618898660208 113.23978239149577 H 0.0 **** 0.06
9480 H 19.805463860200973 63.70216763825577 114.90405201707657 H 0.0 **** 0.06
9481 C 31.10776104132229 15.121907728662563 110.21397793455067 C 0.0 **** -0.24
9482 H 30.14612601925515 15.629605572589412 110.13890160603758 H 0.0 **** 0.06
9483 H 31.021538584064814 14.28287141768945 110.90589652941499 H 0.0 **** 0.06
9484 H 31.859302234700067 15.8204165727349 110.58083438448689 H 0.0 **** 0.06
9485 H 31.401550795220658 14.753414538749865 109.23121051060154 H 0.0 **** 0.06
9486 C 27.860273494521465 31.217147582881204 45.522457652736534 C 0.0 **** -0.24
9487 H 27.350527744742124 30.927234221265877 46.44228866330673 H 0.0 **** 0.06
9488 H 27.827357428540807 30.38884010495717 44.813416168930246 H 0.0 **** 0.06
9489 H 28.898241842771483 31.462924551695366 45.74621387106242 H 0.0 **** 0.06
9490 H 27.36528130186747 32.0861477670093 45.09108104695787 H 0.0 **** 0.06
9491 C 83.8472447615066 53.957249033335955 70.31157778515956 C 0.0 **** -0.24
9492 H 83.31843449346326 53.159395355510185 69.78930417107802 H 0.0 **** 0.06
9493 H 83.22695406776636 54.85402244652194 70.32463259256622 H 0.0 **** 0.06
9494 H 84.78395735010798 54.16958762842894 69.79715163507706 H 0.0 **** 0.06
9495 H 84.05645538869913 53.64435380028141 71.33475029336194 H 0.0 **** 0.06
9496 C 96.05157949109457 42.40491263580873 87.39113834002583 C 0.0 **** -0.24
9497 H 95.58306834841108 41.958700277125764 86.5146508962648 H 0.0 **** 0.06
9498 H 96.82040292051403 43.10907764138037 87.07322696318084 H 0.0 **** 0.06
9499 H 96.50467826571474 41.621795184594184 87.9992896743394 H 0.0 **** 0.06
9500 H 95.29778736769566 42.9293417286932 87.97794580519634 H 0.0 **** 0.06
9501 C 41.4798076132017 108.53149793228249 58.65355181568688 C 0.0 **** -0.24
9502 H 41.469194227927545 108.47315702128628 57.56484469124766 H 0.0 **** 0.06
9503 H 40.94353419861048 107.6773994067807 59.06815892110754 H 0.0 **** 0.06
9504 H 40.99631909570289 109.45437863870279 58.9730490673484 H 0.0 **** 0.06
9505 H 42.510642297646825 108.51909608114556 59.00718227500025 H 0.0 **** 0.06
9506 C 99.4189236709532 103.09697961369024 130.1421658414922 C 0.0 **** -0.24
9507 H 99.96033975681385 103.96546244978752 129.76626866401355 H 0.0 **** 0.06
9508 H 98.45231691799393 103.02751814873284 129.64195085720837 H 0.0 **** 0.06
9509 H 99.26644678980443 103.2005704397467 131.21592379647362 H 0.0 **** 0.06
9510 H 99.99707838997689 102.19465702414293 129.94213695621877 H 0.0 **** 0.06
9511 C 87.99636722318756 113.33495729423525 129.99039674207864 C 0.0 **** -0.24
9512 H 87.25082341102969 114.12465108302588 129.8978245582635 H 0.0 **** 0.06
9513 H 88.74552828389334 113.4492368669331 129.20671225567256 H 0.0 **** 0.06
9514 H 87.51147665939935 112.36433681672898 129.8917639126209 H 0.0 **** 0.06
9515 H 88.47788282133558 113.40347412558809 130.96595383995606 H 0.0 **** 0.06
9516 C 88.70561847255942 72.03410904620767 130.15981018159815 C 0.0 **** -0.24
9517 H 89.28867248938946 72.71193245863925 129.5347837710515 H 0.0 **** 0.06
9518 H 88.73720905183919 72.37778009027616 131.19420071357067 H 0.0 **** 0.06
9519 H 89.12424487143636 71.03034068883193 130.09627734239828 H 0.0 **** 0.06
9520 H 87.67166311568437 72.01983024376634 129.81269492987295 H 0.0 **** 0.06
9521 C 91.97705140525952 9.278991778780295 75.81579221323858 C 0.0 **** -0.24
9522 H 92.73309879129641 9.94665980813302 75.40153713208589 H 0.0 **** 0.06
9523 H 90.98971120841385 9.720122346385892 75.67748583749092 H 0.0 **** 0.06
9524 H 92.16559247874694 9.134072374044734 76.87891498383937 H 0.0 **** 0.06
9525 H 92.02130132893832 8.318485883341864 75.3033931678986 H 0.0 **** 0.06
9526 C 20.10367454314533 125.53977820878544 93.29605415321161 C 0.0 **** -0.24
9527 H 19.968534529877417 125.38677524104585 94.36741068362447 H 0.0 **** 0.06
9528 H 19.44017217702057 124.87027142351229 92.74794030638186 H 0.0 **** 0.06
9529 H 21.13871534021621 125.32823111884865 93.0271455033849 H 0.0 **** 0.06
9530 H 19.865771502604844 126.57380465825489 93.04514589959516 H 0.0 **** 0.06
9531 C 44.0158199461229 130.4346533104668 1.7990180849815829 C 0.0 **** -0.24
9532 H 44.56623165723526 130.16378429364136 0.8979140924597573 H 0.0 **** 0.06
9533 H 44.717848279924965 130.74111696060655 2.574592536105456 H 0.0 **** 0.06
9534 H 43.440949051931234 129.57551216512064 2.1455443457095384 H 0.0 **** 0.06
9535 H 43.33755744784904 131.25903797778693 1.5758265762354426 H 0.0 **** 0.06
9536 C 34.907761777665215 3.0947749021883055 111.63731183244015 C 0.0 **** -0.24
9537 H 35.68496005824636 3.8248167951906 111.41441038026569 H 0.0 **** 0.06
9538 H 34.11051130421728 3.5748388371064266 112.2062818363998 H 0.0 **** 0.06
9539 H 35.33162260005682 2.2787775032782633 112.22264141384768 H 0.0 **** 0.06
9540 H 34.50125037891476 2.7013934317290023 110.70483338756999 H 0.0 **** 0.06
9541 C 13.736680684854406 22.203096359528985 42.346858185958155 C 0.0 **** -0.24
9542 H 13.76017544266287 21.951608846998965 41.285618531238555 H 0.0 **** 0.06
9543 H 12.991518713760058 21.58750789782104 42.84962641301439 H 0.0 **** 0.06
9544 H 13.478348854746287 23.255417166539445 42.46422105215893 H 0.0 **** 0.06
9545 H 14.717945633027028 22.018266320656238 42.78527863755389 H 0.0 **** 0.06
9546 C 85.21850953593267 116.51426594608728 104.55631224336747 C 0.0 **** -0.24
9547 H 84.74380191534257 115.53725143030863 104.64396925566756 H 0.0 **** 0.06
9548 H 86.25517948574463 116.44501914816686 104.88489819741217 H 0.0 **** 0.06
9549 H 84.68629212923392 117.23397512660974 105.1782533933592 H 0.0 **** 0.06
9550 H 85.18709902865726 116.84088594019718 103.51633325711292 H 0.0 **** 0.06
9551 C 106.44606982078176 5.1025794623114 52.742130838545876 C 0.0 **** -0.24
9552 H 106.8009202407786 6.049869032636867 52.334940252026726 H 0.0 **** 0.06
9553 H 105.85552942942034 5.29132138807266 53.63876231962553 H 0.0 **** 0.06
9554 H 107.29840820682332 4.472594121468724 52.994119223527335 H 0.0 **** 0.06
9555 H 105.82781819731325 4.597697516980897 51.99966492184805 H 0.0 **** 0.06
9556 C 112.97753215180421 116.1028334839401 114.74631976179802 C 0.0 **** -0.24
9557 H 113.45673212753417 115.13283962315636 114.61495863849933 H 0.0 **** 0.06
9558 H 113.1859876647411 116.73113704161597 113.87904959892029 H 0.0 **** 0.06
9559 H 113.36785993591366 116.58114266713018 115.64440271604943 H 0.0 **** 0.06
9560 H 111.90104888028083 115.96595252248622 114.84494933232816 H 0.0 **** 0.06
9561 C 98.64496406238065 0.9140164500587105 123.64042370404981 C 0.0 **** -0.24
9562 H 97.97529858460157 0.18860894591270494 123.17708296508181 H 0.0 **** 0.06
9563 H 99.16332622687449 1.477405020967126 122.86425975324808 H 0.0 **** 0.06
9564 H 99.37449947701714 0.39051008528258535 124.25946466574032 H 0.0 **** 0.06
9565 H 98.06522824865912 1.5976805327843522 124.26141189609805 H 0.0 **** 0.06
9566 C 122.61957663752281 32.74528711763304 61.99890983757504 C 0.0 **** -0.24
9567 H 122.2316784502998 32.856429952857496 60.98565625904922 H 0.0 **** 0.06
9568 H 121.93398926723472 32.13175262388009 62.58413278587196 H 0.0 **** 0.06
9569 H 122.71305728664737 33.72770753848532 62.46142895972841 H 0.0 **** 0.06
9570 H 123.59759122016308 32.26504301948994 61.962186902218804 H 0.0 **** 0.06
9571 C 70.48423539453212 12.109229665445753 58.31110044453155 C 0.0 **** -0.24
9572 H 70.81155551185805 11.072895686363353 58.3900868548167 H 0.0 **** 0.06
9573 H 70.91178787564708 12.55807737166819 57.41444549934769 H 0.0 **** 0.06
9574 H 70.81682291751838 12.662644416765545 59.18886925276777 H 0.0 **** 0.06
9575 H 69.39587784277937 12.14301124196271 58.251332746965375 H 0.0 **** 0.06
9576 C 23.394097007572228 124.80178053395798 17.88691802017899 C 0.0 **** -0.24
9577 H 22.57829527679076 124.69591045499214 17.170824721802255 H 0.0 **** 0.06
9578 H 24.17881864398361 124.08318038378113 17.65103408450841 H 0.0 **** 0.06
9579 H 23.020712665093086 124.61581172257688 18.893538682556404 H 0.0 **** 0.06
9580 H 23.79764775258633 125.81282635199696 17.829667402582253 H 0.0 **** 0.06
9581 C 9.776847198133218 24.219267967300993 95.33498244451614 C 0.0 **** -0.24
9582 H 8.939143457569838 24.740038297306967 95.79893845729003 H 0.0 **** 0.06
9583 H 9.436855036768495 23.257572231540905 94.94913509070464 H 0.0 **** 0.06
9584 H 10.559089348082246 24.05789464593667 96.07631456098976 H 0.0 **** 0.06
9585 H 10.170429377068395 24.820869963451116 94.51696015982539 H 0.0 **** 0.06
9586 C 33.08231107493101 104.60600960855804 85.08711422723547 C 0.0 **** -0.24
9587 H 32.205428473218895 104.00589965141107 85.33203148718871 H 0.0 **** 0.06
9588 H 33.832125470291196 104.48816061671538 85.87016947654502 H 0.0 **** 0.06
9589 H 32.79584231298641 105.65442103390296 85.0126257901033 H 0.0 **** 0.06
9590 H 33.49539659560595 104.27282487257366 84.1347840424076 H 0.0 **** 0.06
9591 C 39.606704669391775 101.8376560155109 23.59855241522979 C 0.0 **** -0.24
9592 H 40.46961989430508 101.18929454142415 23.74868286318815 H 0.0 **** 0.06
9593 H 38.72028368689669 101.22618327481416 23.426786711066597 H 0.0 **** 0.06
9594 H 39.77939880824189 102.47855662681957 22.734801566433816 H 0.0 **** 0.06
9595 H 39.456605334276304 102.45378412890722 24.485078672851387 H 0.0 **** 0.06
9596 C 42.82047283512824 11.323660166182606 75.94498314953937 C 0.0 **** -0.24
9597 H 43.20668269649738 12.108156516806957 76.59571188335968 H 0.0 **** 0.06
9598 H 42.9173230187277 10.358423178880116 76.44164203572663 H 0.0 **** 0.06
9599 H 43.38844316581222 11.313298283685754 75.01361967685614 H 0.0 **** 0.06
9600 H 41.77007867790408 11.51696958477902 75.72702889221871 H 0.0 **** 0.06
9601 C 35.543851377856754 10.777842336738239 84.48221136684009 C 0.0 **** -0.24
9602 H 35.475982799307246 11.767656993304449 84.02994008174869 H 0.0 **** 0.06
9603 H 34.96855117754495 10.067387170089827 83.88878437681923 H 0.0 **** 0.06
9604 H 35.1443152055499 10.813541034587413 85.49582911138731 H 0.0 **** 0.06
9605 H 36.58792509249531 10.46478511425575 84.5146425541995 H 0.0 **** 0.06
9606 C 61.914410023300505 52.52678620652168 24.003818456736937 C 0.0 **** -0.24
9607 H 61.86045432966431 51.55111579742933 23.520641970509942 H 0.0 **** 0.06
9608 H 61.40483785513635 53.266907030971964 23.3866143932213 H 0.0 **** 0.06
9609 H 62.958973494762816 52.81368237677839 24.128551212471407 H 0.0 **** 0.06
9610 H 61.433713532717704 52.47476268768796 24.980660768038945 H 0.0 **** 0.06
9611 C 42.13731362252457 44.50922279589639 3.781353773963218 C 0.0 **** -0.24
9612 H 41.87976940054267 43.58907663324689 4.305147092986573 H 0.0 **** 0.06
9613 H 41.43148768748841 44.67487670994822 2.9673021714627055 H 0.0 **** 0.06
9614 H 43.14644794891825 44.42723364695203 3.376647457153723 H 0.0 **** 0.06
9615 H 42.093028701501055 45.347322612896534 4.477410564006902 H 0.0 **** 0.06
9616 C 118.70504301699356 22.945982453424563 115.15016779561437 C 0.0 **** -0.24
9617 H 119.09303813592885 23.00802217700948 116.16630275901386 H 0.0 **** 0.06
9618 H 118.8069358713243 23.91535050042964 114.66261996601993 H 0.0 **** 0.06
9619 H 117.65362661048448 22.662624631241812 115.17936148441281 H 0.0 **** 0.06
9620 H 119.26778703443466 22.19721006578638 114.59236355263972 H 0.0 **** 0.06
9621 C 28.35985769336166 25.006247505528734 41.24118760020423 C 0.0 **** -0.24
9622 H 28.292328249064212 24.557982607829075 42.23253357138725 H 0.0 **** 0.06
9623 H 27.86752862426765 25.979224034029983 41.24855574766195 H 0.0 **** 0.06
9624 H 27.869867881481625 24.35750903764969 40.514540572690805 H 0.0 **** 0.06
9625 H 29.407693283304624 25.13121613409284 40.96936991845689 H 0.0 **** 0.06
9626 C 44.32998966609886 71.10509552563596 48.93030408664174 C 0.0 **** -0.24
9627 H 43.46206849300589 71.06399314338353 49.58889192084675 H 0.0 **** 0.06
9628 H 45.182567568889134 70.63852948807727 49.424654741184725 H 0.0 **** 0.06
9629 H 44.56524476362264 72.14558015983425 48.70446502332794 H 0.0 **** 0.06
9630 H 44.10909331725457 70.5733204740772 48.005191375287325 H 0.0 **** 0.06
9631 C 19.394172681338198 34.91708879801468 31.41269980653611 C 0.0 **** -0.24
9632 H 18.868444131679176 33.96698562108496 31.502018655815718 H 0.0 **** 0.06
9633 H 18.736682426238346 35.727865740661336 31.727640792535354 H 0.0 **** 0.06
9634 H 19.68980911927396 35.072851892181305 30.374244446969975 H 0.0 **** 0.06
9635 H 20.28251723001209 34.902487194771936 32.04464779541066 H 0.0 **** 0.06
9636 C 112.14639097101275 77.29643532742958 125.60358070662772 C 0.0 **** -0.24
9637 H 112.50291800887736 77.0705073236721 126.60890877212461 H 0.0 **** 0.06
9638 H 112.0835518318565 76.37490337658708 125.02531558966712 H 0.0 **** 0.06
9639 H 112.83836718051965 77.98436566045682 125.11854234788535 H 0.0 **** 0.06
9640 H 111.15957777010165 77.75670094771053 125.66457911324784 H 0.0 **** 0.06
9641 C 77.27958255884019 17.530930553279234 31.534980088127412 C 0.0 **** -0.24
9642 H 76.6803526530152 16.629551354522164 31.663962780685154 H 0.0 **** 0.06
9643 H 77.59737784343338 17.609102116864676 30.495434122691847 H 0.0 **** 0.06
9644 H 78.1563872973116 17.480031311882612 32.18138417980839 H 0.0 **** 0.06
9645 H 76.68359183690112 18.403824447448585 31.800603423449985 H 0.0 **** 0.06
9646 C 87.71668569844314 62.912845092442595 39.539411619474265 C 0.0 **** -0.24
9647 H 88.63413223095212 62.57737842216355 39.05634080183913 H 0.0 **** 0.06
9648 H 87.31490039645733 62.10867822105536 40.154892421986716 H 0.0 **** 0.06
9649 H 86.98574196400921 63.18958235506534 38.77925028918489 H 0.0 **** 0.06
9650 H 87.93206406035986 63.77747054136472 40.16719379701172 H 0.0 **** 0.06
9651 C 13.265922271250759 85.51074231641573 104.63532516444025 C 0.0 **** -0.24
9652 H 12.876167891343584 85.62060188984691 103.62368153754238 H 0.0 **** 0.06
9653 H 14.354838461718884 85.56043985268633 104.61236454398085 H 0.0 **** 0.06
9654 H 12.953605726596606 84.54859821343348 105.04186863713204 H 0.0 **** 0.06
9655 H 12.878100129853067 86.31351595500897 105.26328137452617 H 0.0 **** 0.06
9656 C 106.8517821714166 54.26603023965123 40.62605958682079 C 0.0 **** -0.24
9657 H 106.76615047879699 55.16017516699725 40.0081173855512 H 0.0 **** 0.06
9658 H 107.4136698858197 53.503845966439826 40.086306131367735 H 0.0 **** 0.06
9659 H 105.85529285935064 53.88876507202002 40.85656237076833 H 0.0 **** 0.06
9660 H 107.36927676410593 54.51283847822668 41.55276367961318 H 0.0 **** 0.06
9661 C 22.432287058565436 36.708674168435614 28.181332930896247 C 0.0 **** -0.24
9662 H 22.001266153939895 37.33447150719102 28.96376645792111 H 0.0 **** 0.06
9663 H 23.366268291346614 36.273660870512344 28.53905214540498 H 0.0 **** 0.06
9664 H 22.62883096934695 37.31612400178781 27.297797040518617 H 0.0 **** 0.06
9665 H 21.733836312089437 35.91268056731941 27.92752180843422 H 0.0 **** 0.06
9666 C 69.05348135934946 15.839992757654432 105.94365563910392 C 0.0 **** -0.24
9667 H 68.90637372754338 16.271320152911986 106.93406642262298 H 0.0 **** 0.06
9668 H 68.2081145483784 16.09955530913761 105.30623684535507 H 0.0 **** 0.06
9669 H 69.12819966910935 14.755907123942372 106.02657101807259 H 0.0 **** 0.06
9670 H 69.9710776658964 16.235207442423143 105.50869610111968 H 0.0 **** 0.06
9671 C 3.3055497284136663 58.51848101296798 123.59012134829632 C 0.0 **** -0.24
9672 H 3.756655065493703 58.88276778610728 124.51227670709778 H 0.0 **** 0.06
9673 H 4.071624642414264 58.43841259116037 122.81829507659177 H 0.0 **** 0.06
9674 H 2.530982021215806 59.21284715717999 123.26541692501553 H 0.0 **** 0.06
9675 H 2.863234849746391 57.536468482467185 123.7659666351737 H 0.0 **** 0.06
9676 C 90.89561468998446 51.50003930130184 87.19234297994129 C 0.0 **** -0.24
9677 H 91.07818471145804 52.49417294260094 87.59953203048921 H 0.0 **** 0.06
9678 H 90.29592964843117 51.58283486695062 86.28574316107385 H 0.0 **** 0.06
9679 H 90.36124806455777 50.89895467744816 87.92854070838858 H 0.0 **** 0.06
9680 H 91.84756781571664 51.02324684173823 86.95692693353917 H 0.0 **** 0.06
9681 C 5.249520548469903 46.96885339103122 95.05593014822935 C 0.0 **** -0.24
9682 H 5.892650446267027 47.44576591879255 95.79622934526756 H 0.0 **** 0.06
9683 H 4.5306026791841845 46.32382214213386 95.56207272694036 H 0.0 **** 0.06
9684 H 5.8578757746304575 46.37153150326043 94.37695154797902 H 0.0 **** 0.06
9685 H 4.7174367629282585 47.733554653841416 94.49052121339193 H 0.0 **** 0.06
9686 C 56.08578676262823 22.20037025113797 29.49477049434489 C 0.0 **** -0.24
9687 H 56.892851575508246 22.897896907284434 29.717775864027686 H 0.0 **** 0.06
9688 H 55.2924585623997 22.315740727088382 30.233964342237584 H 0.0 **** 0.06
9689 H 56.468262361244285 21.180273008854385 29.526856191121183 H 0.0 **** 0.06
9690 H 55.6891728369921 22.408877149945965 28.500847575798517 H 0.0 **** 0.06
9691 C 13.621494296870424 71.86709073036045 34.09335456324308 C 0.0 **** -0.24
9692 H 13.868435509836274 71.59746252352232 35.120800038867145 H 0.0 **** 0.06
9693 H 12.92245664297343 71.13745497748027 33.683829800315124 H 0.0 **** 0.06
9694 H 14.531336664565458 71.87591627564387 33.49222769706455 H 0.0 **** 0.06
9695 H 13.165530276493485 72.85694481804717 34.07725612716274 H 0.0 **** 0.06
9696 C 98.31830248439746 110.44354309533298 105.02951723210396 C 0.0 **** -0.24
9697 H 98.4282589184603 111.08203547791555 104.15323616800916 H 0.0 **** 0.06
9698 H 97.52277437171807 109.71915563709706 104.85362713463485 H 0.0 **** 0.06
9699 H 98.06722863526005 111.0569278726395 105.89558800121867 H 0.0 **** 0.06
9700 H 99.25474766674984 109.9184734505211 105.21529587573599 H 0.0 **** 0.06
9701 C 102.9713727204649 52.421735305357785 80.31852536111404 C 0.0 **** -0.24
9702 H 103.95730598257455 52.707557633359684 80.68371930201276 H 0.0 **** 0.06
9703 H 102.20630081418722 52.957470527696316 80.87996564218417 H 0.0 **** 0.06
9704 H 102.83310411746089 51.34786841174676 80.44789386803883 H 0.0 **** 0.06
9705 H 102.8893641126491 52.67303433427823 79.2608983590551 H 0.0 **** 0.06
9706 C 105.39211597629782 86.6866210092034 76.00494395234288 C 0.0 **** -0.24
9707 H 106.4140428111663 86.31606354475474 76.09420348384329 H 0.0 **** 0.06
9708 H 105.25533188018582 87.13703505755922 75.02135775005502 H 0.0 **** 0.06
9709 H 105.20888841803881 87.43461503510554 76.77662399887618 H 0.0 **** 0.06
9710 H 104.69338740439795 85.85955821963006 76.12711572887146 H 0.0 **** 0.06
9711 C 106.69681737468869 1.0530941881512206 21.38680889417114 C 0.0 **** -0.24
9712 H 106.28543559603128 0.8971072892376526 20.388964390254642 H 0.0 **** 0.06
9713 H 107.77413717290398 0.8865868181719065 21.36646548349924 H 0.0 **** 0.06
9714 H 106.23449040504306 0.35315777589360664 22.082793993715512 H 0.0 **** 0.06
9715 H 106.49158326873834 2.0736901965500465 21.709012538275317 H 0.0 **** 0.06
9716 C 66.13638227398533 40.820756476325755 30.805751775641752 C 0.0 **** -0.24
9717 H 66.56615062642433 39.86423247052983 30.50628470346406 H 0.0 **** 0.06
9718 H 66.72492368879702 41.6328409971924 30.37898462892568 H 0.0 **** 0.06
9719 H 66.14359226241197 40.89752971725042 31.892700401882422 H 0.0 **** 0.06
9720 H 65.10965641935255 40.8853308899116 30.443627887073944 H 0.0 **** 0.06
9721 C 27.32183801352926 5.92122269398854 6.606080161747485 C 0.0 **** -0.24
9722 H 28.08471456931011 6.607208961339069 6.974462680747507 H 0.0 **** 0.06
9723 H 26.477061200886 5.913472104585679 7.29535846153567 H 0.0 **** 0.06
9724 H 27.74075302712106 4.91722756975949 6.532619180524591 H 0.0 **** 0.06
9725 H 26.985406932544606 6.247770128883133 5.622076417322177 H 0.0 **** 0.06
9726 C 107.66444964315434 107.58111299602714 69.00537005167183 C 0.0 **** -0.24
9727 H 108.18332134071797 108.36642115812577 68.45377705086645 H 0.0 **** 0.06
9728 H 106.88651217777506 108.02663559723551 69.62537600359144 H 0.0 **** 0.06
9729 H 108.37580881168337 107.0518903327927 69.63839367238793 H 0.0 **** 0.06
9730 H 107.21291221313555 106.88208783558422 68.30153396769998 H 0.0 **** 0.06
9731 C 36.93196491711498 71.40729242763187 100.13448006308923 C 0.0 **** -0.24
9732 H 37.463461200751254 72.05755863777577 100.82844328970126 H 0.0 **** 0.06
9733 H 37.49286348788306 70.4821209303152 100.00037940099892 H 0.0 **** 0.06
9734 H 36.82589024385649 71.91079755062407 99.17281780106211 H 0.0 **** 0.06
9735 H 35.943845478414715 71.17931833514486 100.53510869386713 H 0.0 **** 0.06
9736 C 101.64147475054055 107.10510734693233 60.1846999511955 C 0.0 **** -0.24
9737 H 102.2277400565968 107.36894290223135 59.30482539970272 H 0.0 **** 0.06
9738 H 101.62769801512782 107.94598521092371 60.87832023945087 H 0.0 **** 0.06
9739 H 102.0878841714756 106.2382999813703 60.672876289330944 H 0.0 **** 0.06
9740 H 100.62144799835507 106.86635448404529 59.88268340069702 H 0.0 **** 0.06
9741 C 77.21641075012283 64.22029137143456 55.042277922669655 C 0.0 **** -0.24
9742 H 78.28623301529393 64.42639074740998 55.00753826999099 H 0.0 **** 0.06
9743 H 76.89304532202434 63.81370443537891 54.083786211720735 H 0.0 **** 0.06
9744 H 76.67538375990566 65.14360513382881 55.24702388185213 H 0.0 **** 0.06
9745 H 77.01198647914873 63.497241641230175 55.83173232883178 H 0.0 **** 0.06
9746 C 43.6627628045473 66.7475896578818 58.83131764558334 C 0.0 **** -0.24
9747 H 44.71919777110625 66.53197816508808 58.992923172785424 H 0.0 **** 0.06
9748 H 43.42556942814679 67.72821122233373 59.24441950134462 H 0.0 **** 0.06
9749 H 43.057913438119115 65.98864324911139 59.327843654722415 H 0.0 **** 0.06
9750 H 43.45035898045168 66.74134407916219 57.76253654486095 H 0.0 **** 0.06
9751 C 121.0012883687915 117.90578128013829 92.50034215467983 C 0.0 **** -0.24
9752 H 121.20230796190272 118.52660182254048 93.37379134190425 H 0.0 **** 0.06
9753 H 120.31384344669343 118.42761737444711 91.8341124075628 H 0.0 **** 0.06
9754 H 120.5550307985398 116.9645490671769 92.81944794314043 H 0.0 **** 0.06
9755 H 121.93489791084843 117.70570102722834 91.97459546365442 H 0.0 **** 0.06
9756 C 45.81266343099978 6.640948451553566 22.6962151280895 C 0.0 **** -0.24
9757 H 45.59400030010204 6.3219556177496266 23.715486190239083 H 0.0 **** 0.06
9758 H 46.81336968788159 7.07096826798524 22.656738519928453 H 0.0 **** 0.06
9759 H 45.08257546914939 7.388338660644141 22.385707625411882 H 0.0 **** 0.06
9760 H 45.75877758990907 5.782010842371978 22.02688486457749 H 0.0 **** 0.06
9761 C 33.12043158932633 29.482663596396833 32.10144558621346 C 0.0 **** -0.24
9762 H 32.096408673567176 29.76033956184012 31.854608565271292 H 0.0 **** 0.06
9763 H 33.13186309685567 28.481942317182707 32.53328433986212 H 0.0 **** 0.06
9764 H 33.52652668015948 30.194082523615393 32.82047225662501 H 0.0 **** 0.06
9765 H 33.72817003453133 29.494314550426935 31.195306057650896 H 0.0 **** 0.06
9766 C 30.895367874544007 34.41961429219387 53.34544508693345 C 0.0 **** -0.24
9767 H 30.534640639463447 33.66576565281966 52.645917717388954 H 0.0 **** 0.06
9768 H 30.0521585950122 34.83680872556987 53.89667047648122 H 0.0 **** 0.06
9769 H 31.40001419529645 35.214610082004825 52.7958340503922 H 0.0 **** 0.06
9770 H 31.595519329324134 33.96110258106337 54.04446688578601 H 0.0 **** 0.06
9771 C 62.145740040370384 103.70601243209697 27.538513948512666 C 0.0 **** -0.24
9772 H 61.74466358677566 104.19198190974615 28.428185145916288 H 0.0 **** 0.06
9773 H 62.89137544669052 104.35361683110986 27.075476211360346 H 0.0 **** 0.06
9774 H 61.33729263386917 103.51965352846102 26.831652142908062 H 0.0 **** 0.06
9775 H 62.60923716330652 102.76074595651096 27.818517701577093 H 0.0 **** 0.06
9776 C 41.300193171324224 64.89249719637453 120.42358431232093 C 0.0 **** -0.24
9777 H 41.716371788932726 65.41288131133135 121.28638916829023 H 0.0 **** 0.06
9778 H 41.14601304990409 65.60251513424217 119.61108109063215 H 0.0 **** 0.06
9779 H 40.34717119370121 64.4397754371565 120.69748684190152 H 0.0 **** 0.06
9780 H 41.992460387807945 64.11490434724234 120.10004767260904 H 0.0 **** 0.06
9781 C 45.571557206762975 106.93886675698033 117.47927903940646 C 0.0 **** -0.24
9782 H 46.12729042593074 107.41250067999925 116.66962293969303 H 0.0 **** 0.06
9783 H 44.6348314437775 106.53842912358868 117.09098785635183 H 0.0 **** 0.06
9784 H 45.35910624509776 107.67672214563942 118.25286967967172 H 0.0 **** 0.06
9785 H 46.16648635154388 106.12919704225763 117.90269582429755 H 0.0 **** 0.06
9786 C 95.48261263964568 110.53975720567497 50.6097636364006 C 0.0 **** -0.24
9787 H 95.49708446028168 111.55734609095254 51.000448815835654 H 0.0 **** 0.06
9788 H 94.95428044016657 109.89078603981464 51.30851467049463 H 0.0 **** 0.06
9789 H 96.50462768325019 110.18392727059809 50.483511033241356 H 0.0 **** 0.06
9790 H 94.97225401208956 110.52940308020915 49.64611048591128 H 0.0 **** 0.06
9791 C 48.524726179666544 12.936357711634969 28.23353703029028 C 0.0 **** -0.24
9792 H 48.224600590027364 13.974863055316888 28.08726722698077 H 0.0 **** 0.06
9793 H 49.00808744653483 12.83219804878533 29.204343424807746 H 0.0 **** 0.06
9794 H 49.22100150027035 12.646722483736227 27.447006332564598 H 0.0 **** 0.06
9795 H 47.64461638663403 12.295012171106606 28.194382426159734 H 0.0 **** 0.06
9796 C 106.70440440399067 60.881848473114076 7.583830347314233 C 0.0 **** -0.24
9797 H 106.46988209240571 60.749976237933254 8.64033992921054 H 0.0 **** 0.06
9798 H 107.70398276305974 60.49397771499824 7.382058267040634 H 0.0 **** 0.06
9799 H 106.66985454855818 61.942412140472385 7.333018607182595 H 0.0 **** 0.06
9800 H 105.97631090872602 60.34140881721905 6.979720045679727 H 0.0 **** 0.06
9801 C 52.69460184273203 91.75868999701902 116.19499366952786 C 0.0 **** -0.24
9802 H 52.58706710214011 90.68707981127302 116.36311078081269 H 0.0 **** 0.06
9803 H 53.03264236655647 92.23882493494025 117.11302280085948 H 0.0 **** 0.06
9804 H 51.73331479429021 92.17787857207836 115.89702782391308 H 0.0 **** 0.06
9805 H 53.426223061043174 91.92984111727726 115.40334833636798 H 0.0 **** 0.06
9806 C 114.47153915294318 116.77253595063067 42.69612924388611 C 0.0 **** -0.24
9807 H 115.54027725843665 116.5766545438202 42.78197094041386 H 0.0 **** 0.06
9808 H 113.97688982803218 115.90351235698263 42.261700265791085 H 0.0 **** 0.06
9809 H 114.31054153415808 117.63985546536578 42.05675296019918 H 0.0 **** 0.06
9810 H 114.05797676896519 116.96871120630439 43.6857629829663 H 0.0 **** 0.06
9811 C 121.60377224399527 110.0958813866142 114.11743999928012 C 0.0 **** -0.24
9812 H 121.29035055192226 110.82636786777752 114.86296852889734 H 0.0 **** 0.06
9813 H 120.83735519310028 109.32616640137294 114.01818625858579 H 0.0 **** 0.06
9814 H 122.54143826904678 109.63705110905478 114.43004779816869 H 0.0 **** 0.06
9815 H 121.74511349988416 110.59341122623154 113.15754301355116 H 0.0 **** 0.06
9816 C 65.1502786595778 39.16890595976922 37.15452027198805 C 0.0 **** -0.24
9817 H 64.79655766573998 39.87355490464598 37.90644562282762 H 0.0 **** 0.06
9818 H 66.02402178532991 39.58235924485512 36.65197402044569 H 0.0 **** 0.06
9819 H 64.36080439190594 38.9896894429223 36.42422695778001 H 0.0 **** 0.06
9820 H 65.4189416323907 38.228316083418484 37.63664829465202 H 0.0 **** 0.06
9821 C 66.54330231993337 78.96955864513006 126.10190454750281 C 0.0 **** -0.24
9822 H 65.78974965168281 78.47508840001836 126.71441168152953 H 0.0 **** 0.06
9823 H 66.56834137899669 78.50922512579257 125.11443174277613 H 0.0 **** 0.06
9824 H 67.51981096386352 78.86694636102658 126.57579597912783 H 0.0 **** 0.06
9825 H 66.29555247231389 80.02708446567902 126.00468992690864 H 0.0 **** 0.06
9826 C 3.943151314227322 100.27247857831713 92.02947689796459 C 0.0 **** -0.24
9827 H 4.250066231211264 101.3180633827534 92.0701115589445 H 0.0 **** 0.06
9828 H 4.5774504570485135 99.73513920296341 91.32416456507117 H 0.0 **** 0.06
9829 H 2.904877638261894 100.21133208262148 91.7035822194941 H 0.0 **** 0.06
9830 H 4.04006534047241 99.82644035933055 93.01868768440045 H 0.0 **** 0.06
9831 C 32.61362086382309 45.58252275761914 41.010669343822656 C 0.0 **** -0.24
9832 H 32.228000508043266 44.77478506290211 40.388891081293536 H 0.0 **** 0.06
9833 H 31.819551401022323 46.302051545296585 41.20693551024972 H 0.0 **** 0.06
9834 H 33.43456016565544 46.079035770871556 40.4921145919476 H 0.0 **** 0.06
9835 H 32.975352197325236 45.173057856991406 41.9538598909117 H 0.0 **** 0.06
9836 C 101.41457372592932 9.996885405192646 22.560737002213443 C 0.0 **** -0.24
9837 H 101.27281937551682 9.125538652010292 21.92225603328484 H 0.0 **** 0.06
9838 H 102.34772438062296 10.494744932151448 22.29301823171113 H 0.0 **** 0.06
9839 H 101.45799475959804 9.681797882525178 23.602853542966784 H 0.0 **** 0.06
9840 H 100.5826788445939 10.687553815326321 22.423782601148105 H 0.0 **** 0.06
9841 C 13.10381120825356 17.24059904220104 14.700820676393477 C 0.0 **** -0.24
9842 H 13.345085380146813 17.230128061888607 13.638230650069886 H 0.0 **** 0.06
9843 H 12.046606912965728 17.011331255417744 14.83516664881435 H 0.0 **** 0.06
9844 H 13.317714315301657 18.226381695961898 15.112059546317965 H 0.0 **** 0.06
9845 H 13.70633533135674 16.492975421639887 15.216704455231792 H 0.0 **** 0.06
9846 C 50.249824514062865 8.82325521640115 56.792489902226365 C 0.0 **** -0.24
9847 H 50.63801572634134 8.24308165520705 57.62925071359635 H 0.0 **** 0.06
9848 H 49.993248984847085 8.152232156629566 55.972518841478845 H 0.0 **** 0.06
9849 H 51.00885489748748 9.531645520847917 56.45978349533327 H 0.0 **** 0.06
9850 H 49.359792669537356 9.367472923478033 57.110312088284104 H 0.0 **** 0.06
9851 C 15.178063051499208 10.42694765023985 28.808780881757514 C 0.0 **** -0.24
9852 H 14.578662363036756 10.489135676134016 29.717558074111253 H 0.0 **** 0.06
9853 H 15.260557569281758 11.417496649323837 28.36115400684139 H 0.0 **** 0.06
9854 H 14.69794564758746 9.7487652144913 28.102947783724744 H 0.0 **** 0.06
9855 H 16.17194413806061 10.054136925004663 29.05375423882799 H 0.0 **** 0.06
9856 C 86.057664685232 58.31748809201059 31.517880283854666 C 0.0 **** -0.24
9857 H 86.31371264082287 57.56695651912895 32.26666820623848 H 0.0 **** 0.06
9858 H 84.9980065217286 58.55953524329345 31.593841945579072 H 0.0 **** 0.06
9859 H 86.27166878262818 57.92612014158294 30.52285822604493 H 0.0 **** 0.06
9860 H 86.64954085044855 59.21700660676237 31.68901050266595 H 0.0 **** 0.06
9861 C 102.5209440863143 86.51754332179087 41.589971723970535 C 0.0 **** -0.24
9862 H 103.59622541890015 86.51736602658906 41.410031394083376 H 0.0 **** 0.06
9863 H 102.22293128818346 87.47937551540684 42.00712117488325 H 0.0 **** 0.06
9864 H 102.2713373094443 85.72276362150797 42.293313167524474 H 0.0 **** 0.06
9865 H 101.99577249475041 86.34900745912893 40.64962553660567 H 0.0 **** 0.06
9866 C 58.06323959866968 40.50528615749732 112.08923957967173 C 0.0 **** -0.24
9867 H 57.341873150479174 39.918971877297224 111.52044571790853 H 0.0 **** 0.06
9868 H 58.381523158670745 39.93807198397661 112.96539497165506 H 0.0 **** 0.06
9869 H 57.60185577876442 41.43892164185934 112.40915543618024 H 0.0 **** 0.06
9870 H 58.92907038496055 40.72218820414645 111.46305505313944 H 0.0 **** 0.06
9871 C 91.6760348401319 6.823552469666026 38.00180411175862 C 0.0 **** -0.24
9872 H 92.00851118681894 7.55654556822509 37.26577344148486 H 0.0 **** 0.06
9873 H 90.94863253456288 6.153390732578657 37.544418536819826 H 0.0 **** 0.06
9874 H 91.21591211247704 7.340372429007232 38.844252151072155 H 0.0 **** 0.06
9875 H 92.53213307506132 6.247805317029474 38.35196184238993 H 0.0 **** 0.06
9876 C 111.54514694044899 16.203518612023128 80.31783980642862 C 0.0 **** -0.24
9877 H 111.79957797767591 16.167278371706285 79.25822997155734 H 0.0 **** 0.06
9878 H 112.07169245154624 15.408282247250725 80.84531720526675 H 0.0 **** 0.06
9879 H 110.4701721462451 16.070118611636115 80.43873684799908 H 0.0 **** 0.06
9880 H 111.83907266316112 17.16977147900578 80.72875777916161 H 0.0 **** 0.06
9881 C 40.23810290377253 42.248603451949066 86.10317974924726 C 0.0 **** -0.24
9882 H 40.62768172846073 43.10103437765943 85.54550475506522 H 0.0 **** 0.06
9883 H 40.252086120669375 42.476070575115955 87.16962651825384 H 0.0 **** 0.06
9884 H 40.85897823866364 41.374100333892784 85.90888466817097 H 0.0 **** 0.06
9885 H 39.214779851919104 42.04567617361187 85.7874109736909 H 0.0 **** 0.06
9886 C 50.7765100218639 103.51346944621142 9.447243735368232 C 0.0 **** -0.24
9887 H 50.46733213009928 104.17641091208844 8.640118574113018 H 0.0 **** 0.06
9888 H 50.65658799754908 104.02491314351536 10.403000815569897 H 0.0 **** 0.06
9889 H 51.822803577100046 103.23867990870275 9.311034284143233 H 0.0 **** 0.06
9890 H 50.160179495117575 102.61429450435278 9.435859619222242 H 0.0 **** 0.06
9891 C 22.309783299922515 46.207211943346465 9.802718930504057 C 0.0 **** -0.24
9892 H 21.724234403935156 45.306612338959184 9.613829021024515 H 0.0 **** 0.06
9893 H 23.011650971597305 46.36247405507726 8.983285636713049 H 0.0 **** 0.06
9894 H 22.859432509585304 46.0935359057373 10.736290507812555 H 0.0 **** 0.06
9895 H 21.64151281962512 47.06533349428824 9.876090941483938 H 0.0 **** 0.06
9896 C 10.604171339390959 0.5502768149643202 102.53003604681399 C 0.0 **** -0.24
9897 H 10.797571552968293 0.962201289529105 101.5388604149027 H 0.0 **** 0.06
9898 H 9.599990002618895 0.12548115845427787 102.55611365354451 H 0.0 **** 0.06
9899 H 10.683462583755784 1.3417846161131592 103.27391887278563 H 0.0 **** 0.06
9900 H 11.334762742740253 -0.2287552430919959 102.74764054620022 H 0.0 **** 0.06
9901 C 75.8383746753222 15.625613198915971 43.87784541495358 C 0.0 **** -0.24
9902 H 76.53143682842614 14.790131915364412 43.977305733860476 H 0.0 **** 0.06
9903 H 75.72385018372867 16.117854102537038 44.84394506839152 H 0.0 **** 0.06
9904 H 74.8699734007237 15.256969777459403 43.5408507236923 H 0.0 **** 0.06
9905 H 76.22967738860098 16.337610917703586 43.15098784965829 H 0.0 **** 0.06
9906 C 110.22963195033955 56.67675909659499 77.07343208889226 C 0.0 **** -0.24
9907 H 111.15895162132637 56.452676695673176 77.59813729729694 H 0.0 **** 0.06
9908 H 109.91211080665494 57.69192979518073 77.3145281795306 H 0.0 **** 0.06
9909 H 109.45881264993503 55.97111742923835 77.38444969845831 H 0.0 **** 0.06
9910 H 110.38939463762915 56.59107901550931 75.99951069087298 H 0.0 **** 0.06
9911 C 53.990427022650465 39.17705366228554 54.306418397389194 C 0.0 **** -0.24
9912 H 54.184778878001 39.7692680131304 53.41268189190383 H 0.0 **** 0.06
9913 H 53.31718438817239 39.72510914472447 54.96622978071032 H 0.0 **** 0.06
9914 H 54.9298819129767 38.98317480743096 54.82434405385115 H 0.0 **** 0.06
9915 H 53.530062613829145 38.23126716501609 54.02164664494025 H 0.0 **** 0.06
9916 C 76.95916742921993 17.742252455793867 126.56346767320753 C 0.0 **** -0.24
9917 H 77.18117933851964 16.779328699367653 126.10335787408917 H 0.0 **** 0.06
9918 H 76.647628455838 18.448894095844963 125.79309008413901 H 0.0 **** 0.06
9919 H 77.85086928267464 18.119604841416212 127.06354609051351 H 0.0 **** 0.06
9920 H 76.15786051393421 17.621478889456128 127.29160527937785 H 0.0 **** 0.06
9921 C 4.810396280866712 86.21527792163707 99.87561812469357 C 0.0 **** -0.24
9922 H 5.784420555562093 85.89592307755248 100.24679151633697 H 0.0 **** 0.06
9923 H 4.379747215954069 86.942475144623 100.56559071575306 H 0.0 **** 0.06
9924 H 4.150377222341689 85.35141383736966 99.79958437159654 H 0.0 **** 0.06
9925 H 4.927707442759015 86.67133599103042 98.89286252541798 H 0.0 **** 0.06
9926 C 101.44794266885799 20.950661030364074 91.53618952685511 C 0.0 **** -0.24
9927 H 101.07561965796339 20.621076760524005 92.50635717997093 H 0.0 **** 0.06
9928 H 100.90966581949766 21.84619452740762 91.22580064724679 H 0.0 **** 0.06
9929 H 101.29320800240754 20.159945157176708 90.80107855412757 H 0.0 **** 0.06
9930 H 102.51272300982077 21.173042391079406 91.61146149282467 H 0.0 **** 0.06
9931 C 47.728158772152796 24.416347677767646 54.24618269954338 C 0.0 **** -0.24
9932 H 47.78222650445194 24.70070692613308 53.195550061354126 H 0.0 **** 0.06
9933 H 47.37841193464452 25.264989385347462 54.83487015949666 H 0.0 **** 0.06
9934 H 48.71763927872158 24.116353673932736 54.5925530893205 H 0.0 **** 0.06
9935 H 47.03435737079312 23.583340725657138 54.3617574880022 H 0.0 **** 0.06
9936 C 26.782036944855065 39.926406339212946 27.414023185594914 C 0.0 **** -0.24
9937 H 27.437395696784563 40.795610311685664 27.4805506595728 H 0.0 **** 0.06
9938 H 25.761469830644046 40.22217291961718 27.659395206696672 H 0.0 **** 0.06
9939 H 27.11810551088911 39.163734769699985 28.116071923890615 H 0.0 **** 0.06
9940 H 26.81137287102308 39.52628604060459 26.400538790052565 H 0.0 **** 0.06
9941 C 75.41627780634343 41.336162422482836 108.24385492662793 C 0.0 **** -0.24
9942 H 74.82144218757924 42.04315055080571 107.66591217942545 H 0.0 **** 0.06
9943 H 74.75578153576362 40.617088593843924 108.72896213733827 H 0.0 **** 0.06
9944 H 75.98645780689998 41.87372641216967 109.00058414915728 H 0.0 **** 0.06
9945 H 76.1000465298426 40.808870078726514 107.57906883027783 H 0.0 **** 0.06
9946 C 10.321143248223692 1.9281785751420841 43.835034674902374 C 0.0 **** -0.24
9947 H 10.162916960271826 2.599057509230228 44.67943823296625 H 0.0 **** 0.06
9948 H 10.248919938274433 2.4911547601558013 42.90464225194846 H 0.0 **** 0.06
9949 H 9.563429088077765 1.144508141535674 43.846321355603166 H 0.0 **** 0.06
9950 H 11.311312779652685 1.4771422527955487 43.91154019916135 H 0.0 **** 0.06
9951 C 98.96792458159302 121.65207810707122 0.18028834351192913 C 0.0 **** -0.24
9952 H 99.33194360159592 122.67150405820038 0.30936339729405304 H 0.0 **** 0.06
9953 H 98.68643260047065 121.49710475633515 -0.8610189911840269 H 0.0 **** 0.06
9954 H 98.09920843738894 121.49451390215899 0.8192822677992133 H 0.0 **** 0.06
9955 H 99.75350409498469 120.9484526916506 0.4549345659501842 H 0.0 **** 0.06
9956 C 118.46112696927617 54.221854122659636 98.12023252815152 C 0.0 **** -0.24
9957 H 118.23572406385432 53.15867735689997 98.02792731479946 H 0.0 **** 0.06
9958 H 117.62711011926956 54.72817272279491 98.60763474100918 H 0.0 **** 0.06
9959 H 118.61682630210981 54.64767517002346 97.1292922721754 H 0.0 **** 0.06
9960 H 119.36354835081443 54.349952100108425 98.71736985378965 H 0.0 **** 0.06
9961 C 118.53815691637533 108.97473283641968 84.3862715642561 C 0.0 **** -0.24
9962 H 119.1797969690075 109.8458853941722 84.51270988643404 H 0.0 **** 0.06
9963 H 117.59977050946691 109.27910309109122 83.92188895097519 H 0.0 **** 0.06
9964 H 118.33354923291733 108.52990161339831 85.36085118092427 H 0.0 **** 0.06
9965 H 119.03822338879809 108.24365223304022 83.75072757344344 H 0.0 **** 0.06
9966 C 94.28673824108309 0.09996854074280215 27.17055729534684 C 0.0 **** -0.24
9967 H 94.67573379334326 -0.7513359792627643 27.729096943582817 H 0.0 **** 0.06
9968 H 94.38380146841469 -0.09357006053552475 26.101801445700005 H 0.0 **** 0.06
9969 H 94.85203666655485 0.9938960263661265 27.431345965809214 H 0.0 **** 0.06
9970 H 93.23607768992056 0.24803040804706278 27.419375578355755 H 0.0 **** 0.06
9971 C 92.29888212109643 66.14930557612422 118.55844524131578 C 0.0 **** -0.24
9972 H 92.96005521098031 66.99548923574906 118.74099315124056 H 0.0 **** 0.06
9973 H 91.57861152211777 66.06932443590381 119.37327332666803 H 0.0 **** 0.06
9974 H 92.88704369983645 65.23345113585012 118.50089467723006 H 0.0 **** 0.06
9975 H 91.76754076323016 66.29937219602357 117.6178183622045 H 0.0 **** 0.06
9976 C 104.27060795442387 18.220406499705774 33.244939691840806 C 0.0 **** -0.24
9977 H 103.94751715264212 17.51343765479467 34.01027031167984 H 0.0 **** 0.06
9978 H 103.55049523877257 18.22132983321407 32.42553417600463 H 0.0 **** 0.06
9979 H 105.24993532072149 17.92550085207492 32.867674461770115 H 0.0 **** 0.06
9980 H 104.3327062450009 19.218947957017804 33.676461622726265 H 0.0 **** 0.06
9981 C 69.26528841553971 128.19196691116574 20.143708983369976 C 0.0 **** -0.24
9982 H 69.56988158232727 129.0301286016723 19.516525211513454 H 0.0 **** 0.06
9983 H 69.97231243762303 127.37071036475339 20.021413219315207 H 0.0 **** 0.06
9984 H 68.26880400369014 127.86164947182772 19.847976406938074 H 0.0 **** 0.06
9985 H 69.2485041417975 128.50563424773327 21.187130049036114 H 0.0 **** 0.06
9986 C 82.18342685197436 22.22421599582222 126.51950112280609 C 0.0 **** -0.24
9987 H 81.8261444155113 23.05661636939496 125.91291199490617 H 0.0 **** 0.06
9988 H 83.25006781518034 22.34393748682993 126.7081284373205 H 0.0 **** 0.06
9989 H 82.0107789856456 21.287858623505542 125.98822709219033 H 0.0 **** 0.06
9990 H 81.64548851743703 22.207762491924967 127.46673236836608 H 0.0 **** 0.06
9991 C 24.497921781571222 17.358086299226947 3.8181134424428507 C 0.0 **** -0.24
9992 H 25.358724017938698 16.748325566714463 3.5424055030901513 H 0.0 **** 0.06
9993 H 24.804713565798977 18.40111272573907 3.904108896507637 H 0.0 **** 0.06
9994 H 24.101554378438607 17.014604218221095 4.773860498866554 H 0.0 **** 0.06
9995 H 23.729164204915833 17.2669604881023 3.051758263658641 H 0.0 **** 0.06
9996 C 89.96788512861649 29.743698703205098 59.245520639670886 C 0.0 **** -0.24
9997 H 90.19601723476914 28.85611875957767 59.8358638188227 H 0.0 **** 0.06
9998 H 90.28340217859103 30.633987807546703 59.789507561092336 H 0.0 **** 0.06
9999 H 88.89454467958228 29.79103092680515 59.061074379411124 H 0.0 **** 0.06
10000 H 90.4970935651002 29.69289922347633 58.293589259183605 H 0.0 **** 0.06
10001 C 39.232606660692426 22.665695403509233 12.966185914253373 C 0.0 **** -0.24
10002 H 38.37993908162119 22.659960016599513 12.286481839777224 H 0.0 **** 0.06
10003 H 40.14075814743475 22.88629714432281 12.406722668212154 H 0.0 **** 0.06
10004 H 39.32543240010267 21.688138564108215 13.440825310644385 H 0.0 **** 0.06
10005 H 39.08131348914819 23.428106392180524 13.730858637711236 H 0.0 **** 0.06
10006 C 71.61309263409684 37.95472426495462 5.793882719116624 C 0.0 **** -0.24
10007 H 71.75180199337382 39.03609672349421 5.781601601134724 H 0.0 **** 0.06
10008 H 71.80374995103314 37.57616959780964 6.797820261951273 H 0.0 **** 0.06
10009 H 72.3062181938642 37.49176605942884 5.091983802215225 H 0.0 **** 0.06
10010 H 70.58935748818573 37.7173681819302 5.5036915107999675 H 0.0 **** 0.06
10011 C 80.68317399615444 36.05539023425024 98.38987495442112 C 0.0 **** -0.24
10012 H 80.10172339341077 35.714350525210165 99.24690040730245 H 0.0 **** 0.06
10013 H 80.75134664869 35.25348020232994 97.65492444846339 H 0.0 **** 0.06
10014 H 81.68438288728635 36.334309850717915 98.71879757521761 H 0.0 **** 0.06
10015 H 80.1937377581329 36.919556642275666 97.94052535126154 H 0.0 **** 0.06
10016 C 22.264436341929077 82.31832446985078 110.49002776202647 C 0.0 **** -0.24
10017 H 22.323448555735993 81.83926264206501 109.51208458191022 H 0.0 **** 0.06
10018 H 21.279946147095586 82.14061294686866 110.92234838171001 H 0.0 **** 0.06
10019 H 22.426480755120707 83.39005351892683 110.37913199830626 H 0.0 **** 0.06
10020 H 23.029903663224033 81.90057915806587 111.14429156746095 H 0.0 **** 0.06
10021 C 108.112790710291 5.501311513807707 102.71587789297963 C 0.0 **** -0.24
10022 H 108.1157922671822 4.881966814305798 101.8189450066637 H 0.0 **** 0.06
10023 H 108.80575016521601 6.3331765860221765 102.58361582858302 H 0.0 **** 0.06
10024 H 108.42212635147968 4.902855020470582 103.57292034861362 H 0.0 **** 0.06
10025 H 107.10850457102305 5.889306883493475 102.88637545516374 H 0.0 **** 0.06
10026 C 35.73047862452596 116.75799698248373 44.29976279136555 C 0.0 **** -0.24
10027 H 34.841768341156296 117.32547730424555 44.577834087365304 H 0.0 **** 0.06
10028 H 35.50042025189493 116.11886135501733 43.44779259340658 H 0.0 **** 0.06
10029 H 36.04612414693811 116.14251732602638 45.14130190765294 H 0.0 **** 0.06
10030 H 36.531045393994745 117.44668216720552 44.03187294522014 H 0.0 **** 0.06
10031 C 92.34815110240731 79.80539493003022 120.9459373538068 C 0.0 **** -0.24
10032 H 92.02610467749537 80.12168126240738 119.95383830597319 H 0.0 **** 0.06
10033 H 91.4821940835617 79.74399607569805 121.60566467323005 H 0.0 **** 0.06
10034 H 93.05939161687508 80.52788082342988 121.34511335890136 H 0.0 **** 0.06
10035 H 92.8237914769827 78.82613208670779 120.87872070995219 H 0.0 **** 0.06
10036 C 16.927481096502618 45.07964566292407 51.52797057128916 C 0.0 **** -0.24
10037 H 17.221780391258505 45.177591989411226 52.57254985016988 H 0.0 **** 0.06
10038 H 17.259509690813218 44.11365695566791 51.14702789634103 H 0.0 **** 0.06
10039 H 17.385739110032603 45.877909458942646 50.94479398491055 H 0.0 **** 0.06
10040 H 15.842270906078227 45.14851153514636 51.44945413298365 H 0.0 **** 0.06
10041 C 15.075163428499962 32.270136221406375 2.0404145478985463 C 0.0 **** -0.24
10042 H 14.119641051992204 32.58984265980246 2.4576690504902743 H 0.0 **** 0.06
10043 H 15.886185914734142 32.790000897740214 2.5505466122799447 H 0.0 **** 0.06
10044 H 15.102971776080864 32.50718483223878 0.97612031685264 H 0.0 **** 0.06
10045 H 15.189070283268308 31.194676006724364 2.175943203949771 H 0.0 **** 0.06
10046 C 44.563324860171804 107.5091848160113 42.96639717804902 C 0.0 **** -0.24
10047 H 44.156515692865014 108.39329887010324 42.47656449884653 H 0.0 **** 0.06
10048 H 45.48159813383006 107.77520767567943 43.49064286780998 H 0.0 **** 0.06
10049 H 44.77941425067934 106.74655991516718 42.21899832997741 H 0.0 **** 0.06
10050 H 43.83654185807529 107.12265373429548 43.68094645267246 H 0.0 **** 0.06
10051 C 63.57235866868264 114.68026345917391 123.52702727139913 C 0.0 **** -0.24
10052 H 64.33565318390428 114.20480847223607 124.14389968114358 H 0.0 **** 0.06
10053 H 64.0512948131841 115.30607852187771 122.77413476013969 H 0.0 **** 0.06
10054 H 62.929689946558526 115.2961146388462 124.15612480385761 H 0.0 **** 0.06
10055 H 62.971993021130174 113.91360332656129 123.03598769210365 H 0.0 **** 0.06
10056 C 28.827481900896487 5.393206252963026 59.24772701461541 C 0.0 **** -0.24
10057 H 29.877487783835363 5.62752367575149 59.070957412402265 H 0.0 **** 0.06
10058 H 28.23667111345992 5.696687462798163 58.38273839681224 H 0.0 **** 0.06
10059 H 28.480153074964278 5.929219982129375 60.13115468833777 H 0.0 **** 0.06
10060 H 28.715576314201485 4.3203876177618845 59.40616252557007 H 0.0 **** 0.06
10061 C 58.06536527895902 51.593066903502915 66.6810733465525 C 0.0 **** -0.24
10062 H 57.07758103248936 51.25328175660499 66.99123260414561 H 0.0 **** 0.06
10063 H 58.821529612085484 51.161264464695705 67.33871289194614 H 0.0 **** 0.06
10064 H 58.11067015392227 52.67956107661189 66.74010073415047 H 0.0 **** 0.06
10065 H 58.25253349492759 51.27641682991836 65.65535739183709 H 0.0 **** 0.06
10066 C 34.81102230295095 103.86534525649579 60.08606347499989 C 0.0 **** -0.24
10067 H 34.85205870250276 103.38664951664988 61.0651931661028 H 0.0 **** 0.06
10068 H 34.677382562159686 103.1056696085139 59.31632016460935 H 0.0 **** 0.06
10069 H 35.74148824514101 104.4044777729169 59.90751448606483 H 0.0 **** 0.06
10070 H 33.975021266376125 104.5638377080256 60.05786768328403 H 0.0 **** 0.06
10071 C 84.58042788364236 68.34035660603568 14.96469359739621 C 0.0 **** -0.24
10072 H 84.3116758445646 69.18404738161465 15.600830155391758 H 0.0 **** 0.06
10073 H 83.67509469687548 67.82371868498548 14.645085114823939 H 0.0 **** 0.06
10074 H 85.2143457285523 67.65156316641877 15.523077185859414 H 0.0 **** 0.06
10075 H 85.11970682288086 68.70319494232496 14.089857600890419 H 0.0 **** 0.06
10076 C 89.1329595289134 125.23557257691351 85.19111138256103 C 0.0 **** -0.24
10077 H 88.13675213173343 125.66493061311724 85.28801267223487 H 0.0 **** 0.06
10078 H 89.5394674137207 125.47928376114297 84.20881980243973 H 0.0 **** 0.06
10079 H 89.07372367649495 124.15206793659314 85.30054334388085 H 0.0 **** 0.06
10080 H 89.78180044193576 125.64354607894686 85.96508713789746 H 0.0 **** 0.06
10081 C 15.945098807096088 126.22541376240252 21.07140090483105 C 0.0 **** -0.24
10082 H 15.15826027298236 125.69458159008016 21.608423122415275 H 0.0 **** 0.06
10083 H 16.59013960590569 126.73765186586255 21.784483577838387 H 0.0 **** 0.06
10084 H 15.49492129870822 126.95467913698678 20.39774987892028 H 0.0 **** 0.06
10085 H 16.53383139615792 125.51263203320386 20.493521468393396 H 0.0 **** 0.06
10086 C 111.79277212545296 33.99649766297538 70.3858373133148 C 0.0 **** -0.24
10087 H 111.4979349771103 35.04581142832565 70.39533184394853 H 0.0 **** 0.06
10088 H 112.24701649583267 33.75481910041376 69.42408002339116 H 0.0 **** 0.06
10089 H 110.9127180283158 33.3712716057256 70.53977460210623 H 0.0 **** 0.06
10090 H 112.51202249248749 33.81386739222687 71.18419410094609 H 0.0 **** 0.06
10091 C 11.469478825711263 42.11213040148574 53.96294080650169 C 0.0 **** -0.24
10092 H 11.354732649536572 43.18587564039348 53.815438492488525 H 0.0 **** 0.06
10093 H 12.464621695087345 41.805567027819585 53.64113803640821 H 0.0 **** 0.06
10094 H 10.71784285821272 41.583412099956085 53.37522582397641 H 0.0 **** 0.06
10095 H 11.338817720282862 41.87372184279702 55.017866600243494 H 0.0 **** 0.06
10096 C 103.08169036909254 24.888800162744133 72.73580504129133 C 0.0 **** -0.24
10097 H 102.93321832705561 25.3017142428792 73.73475730041623 H 0.0 **** 0.06
10098 H 102.19540957535912 25.07648483100519 72.13015476459503 H 0.0 **** 0.06
10099 H 103.25237405824925 23.815167178102854 72.80903557303108 H 0.0 **** 0.06
10100 H 103.94594273944176 25.36364990976392 72.27204217784691 H 0.0 **** 0.06
10101 C 72.4795808363609 114.6070855260132 67.51078126705505 C 0.0 **** -0.24
10102 H 72.28249031043455 114.19504128562848 66.52055381932405 H 0.0 **** 0.06
10103 H 72.51371983198544 115.69522932284002 67.45159418305946 H 0.0 **** 0.06
10104 H 73.43641250968557 114.23185975932508 67.87567346888676 H 0.0 **** 0.06
10105 H 71.68584464067987 114.3045587082607 68.19380457815583 H 0.0 **** 0.06
10106 C 1.433959925803265 22.33318059781098 62.99636453816615 C 0.0 **** -0.24
10107 H 0.9261089890397329 21.369718908105057 62.95887535681196 H 0.0 **** 0.06
10108 H 1.9246939400468932 22.522390188265803 62.040467862778826 H 0.0 **** 0.06
10109 H 2.1798652916475305 22.320126272914734 63.79130746728089 H 0.0 **** 0.06
10110 H 0.7067140279686441 23.12035392221074 63.19403093136498 H 0.0 **** 0.06
10111 C 76.59929854442228 43.603086662767026 126.67492768778507 C 0.0 **** -0.24
10112 H 76.38832316915412 42.95146537744685 127.52315206219447 H 0.0 **** 0.06
10113 H 75.77522397387891 44.30470736121876 126.54366461147683 H 0.0 **** 0.06
10114 H 76.710317432677 43.00002568692899 125.77312238711733 H 0.0 **** 0.06
10115 H 77.52115215822145 44.154103487017295 126.86005148826055 H 0.0 **** 0.06
10116 C 115.21003290358486 94.46367591426957 80.74558794760227 C 0.0 **** -0.24
10117 H 115.69711851676892 95.20474164371524 80.11377348048822 H 0.0 **** 0.06
10118 H 114.85794625721122 94.94016359804226 81.66046495839745 H 0.0 **** 0.06
10119 H 115.9202855316272 93.67600878140496 80.99653644407655 H 0.0 **** 0.06
10120 H 114.36256795923067 94.03176952278307 80.21143289863383 H 0.0 **** 0.06
10121 C 16.714735770607945 90.26708772351726 46.987833175236574 C 0.0 **** -0.24
10122 H 16.644664497031215 91.07304484210468 46.25707218088607 H 0.0 **** 0.06
10123 H 17.746923078371537 90.17622481694414 47.329528790299804 H 0.0 **** 0.06
10124 H 16.400038106823985 89.33069864716545 46.5262225224113 H 0.0 **** 0.06
10125 H 16.06922040730359 90.48901442893396 47.83710219756645 H 0.0 **** 0.06
10126 C 31.65291128831373 130.73939410804977 77.45092212791054 C 0.0 **** -0.24
10127 H 31.693888207974595 130.3768676068226 78.47705407988494 H 0.0 **** 0.06
10128 H 30.61407341723438 130.78171048340565 77.1225843299447 H 0.0 **** 0.06
10129 H 32.21092087653355 130.06333490156902 76.8035530788291 H 0.0 **** 0.06
10130 H 32.090592142097535 131.7359385851973 77.39939542418331 H 0.0 **** 0.06
10131 C 19.179727612653778 67.46773896388008 30.499894826213193 C 0.0 **** -0.24
10132 H 18.092169901788623 67.43866692517038 30.576892183629134 H 0.0 **** 0.06
10133 H 19.46600091877002 68.0937785075399 29.655007536800568 H 0.0 **** 0.06
10134 H 19.5597505661558 66.45751180449889 30.351102838223667 H 0.0 **** 0.06
10135 H 19.596951781161806 67.8810316084134 31.417413532239976 H 0.0 **** 0.06
10136 C 0.4226696462579298 26.22265865342675 43.5702194278993 C 0.0 **** -0.24
10137 H 1.3356133682805762 26.47322805119208 44.11212468552361 H 0.0 **** 0.06
10138 H -0.22381595043367497 25.62093229922263 44.2088478208326 H 0.0 **** 0.06
10139 H 0.6769494145693216 25.657505404190715 42.67361412686506 H 0.0 **** 0.06
10140 H -0.09431254268150724 27.13885833307404 43.28798914118897 H 0.0 **** 0.06
10141 C 39.06332196419365 26.125406614909224 90.51853969446023 C 0.0 **** -0.24
10142 H 38.88164407227865 27.185518910951487 90.69540838705228 H 0.0 **** 0.06
10143 H 39.079865341690265 25.933683263492924 89.44603612911288 H 0.0 **** 0.06
10144 H 38.26842948495734 25.539740617014445 90.98104244279887 H 0.0 **** 0.06
10145 H 40.022081702136404 25.843284340736204 90.95341352355479 H 0.0 **** 0.06
10146 C 24.095556343384885 20.085954091420504 63.837644065410586 C 0.0 **** -0.24
10147 H 25.10132745125054 20.456895574661317 63.636590719812716 H 0.0 **** 0.06
10148 H 23.58734522911641 19.886600491024268 62.894712985684095 H 0.0 **** 0.06
10149 H 23.539020051818454 20.83489557566459 64.40132260367157 H 0.0 **** 0.06
10150 H 24.157906166983196 19.165685327661706 64.41919580080894 H 0.0 **** 0.06
10151 C 16.7936249480845 111.50732671171295 77.4127436480684 C 0.0 **** -0.24
10152 H 17.254923555180113 110.61563830334188 77.83854513839756 H 0.0 **** 0.06
10153 H 16.333532211197593 111.25666024291695 76.45702744861077 H 0.0 **** 0.06
10154 H 17.555315968251563 112.27242373913361 77.26074092179039 H 0.0 **** 0.06
10155 H 16.031776076386762 111.88313206404223 78.096332084312 H 0.0 **** 0.06
10156 C 91.65562895765216 117.85314138160747 59.903322174033875 C 0.0 **** -0.24
10157 H 91.05254201796777 117.8096635049001 58.996741646479464 H 0.0 **** 0.06
10158 H 91.35815088214926 118.71693995472904 60.497382152759144 H 0.0 **** 0.06
10159 H 92.70848277035029 117.94194882497416 59.63493518762023 H 0.0 **** 0.06
10160 H 91.50500451042917 116.94240861870941 60.48342010538205 H 0.0 **** 0.06
10161 C 6.3171814960699635 124.06156120630567 129.23221994740598 C 0.0 **** -0.24
10162 H 6.788851769240381 124.97178713690101 128.86341604738095 H 0.0 **** 0.06
10163 H 5.909191527221736 124.24147576708663 130.22786371869654 H 0.0 **** 0.06
10164 H 7.056815283608813 123.26248533861002 129.2821106860428 H 0.0 **** 0.06
10165 H 5.51215945427424 123.7697953758368 128.55763215426072 H 0.0 **** 0.06
10166 C 41.6136999506312 98.27296231717287 102.10069798145068 C 0.0 **** -0.24
10167 H 42.253107586756244 98.02064387572094 102.94738553920585 H 0.0 **** 0.06
10168 H 42.165773555668835 98.90335414284873 101.40430563756334 H 0.0 **** 0.06
10169 H 40.73396214382447 98.80820640612949 102.45729102278024 H 0.0 **** 0.06
10170 H 41.30289362247305 97.35869485242917 101.5956040583714 H 0.0 **** 0.06
10171 C 54.81071892769998 51.8233722134477 71.10308258235158 C 0.0 **** -0.24
10172 H 55.547307776558384 52.38752686913395 70.53060560670176 H 0.0 **** 0.06
10173 H 55.31496958503213 51.047242346472956 71.67847214811815 H 0.0 **** 0.06
10174 H 54.09561968980826 51.36333979614622 70.42039760524297 H 0.0 **** 0.06
10175 H 54.28465716493962 52.49543011509823 71.78064264168317 H 0.0 **** 0.06
10176 C 117.25666962204029 103.3483421345189 105.86892936355669 C 0.0 **** -0.24
10177 H 116.98939339980475 102.33012983556583 105.58410894152678 H 0.0 **** 0.06
10178 H 116.6584944019261 103.65443744596942 106.72720760435617 H 0.0 **** 0.06
10179 H 117.06537615126922 104.02069775220716 105.03297651452392 H 0.0 **** 0.06
10180 H 118.3151497319448 103.38543332601515 106.13049710998445 H 0.0 **** 0.06
10181 C 114.73962943008239 27.23977380707977 63.14658282260916 C 0.0 **** -0.24
10182 H 114.69688698500484 26.66297796495705 62.22243178732634 H 0.0 **** 0.06
10183 H 115.58728733472124 26.905778730733786 63.74465624338984 H 0.0 **** 0.06
10184 H 113.81657818018725 27.091990813390083 63.70866212419614 H 0.0 **** 0.06
10185 H 114.85471641919581 28.297465821933926 62.909192704879786 H 0.0 **** 0.06
10186 C 86.65889160586315 120.01151276219407 88.70420780460904 C 0.0 **** -0.24
10187 H 87.15858352853945 119.04557855533439 88.77390379275342 H 0.0 **** 0.06
10188 H 85.61309501120309 119.90087288445719 88.99000798365539 H 0.0 **** 0.06
10189 H 86.71907613138467 120.37885138014228 87.6786831812868 H 0.0 **** 0.06
10190 H 87.14569518266177 120.72110497892874 89.37319108510219 H 0.0 **** 0.06
10191 C 58.35851763567432 47.91344583574103 36.213138211076455 C 0.0 **** -0.24
10192 H 58.613732161053534 48.17220570790515 35.185064091182085 H 0.0 **** 0.06
10193 H 59.27308700432721 47.757263833700705 36.78551705512439 H 0.0 **** 0.06
10194 H 57.764466584340994 47.000074971023885 36.2211025952825 H 0.0 **** 0.06
10195 H 57.78406453431744 48.72449885654076 36.66032618433633 H 0.0 **** 0.06
10196 C 36.7186752960115 48.08701792230045 116.79830655891999 C 0.0 **** -0.24
10197 H 37.0627122703051 47.273312771856155 116.15884504322003 H 0.0 **** 0.06
10198 H 35.62823624074531 48.08954839101 116.82624990505249 H 0.0 **** 0.06
10199 H 37.07480770583368 49.03673417357501 116.40047473496995 H 0.0 **** 0.06
10200 H 37.10767452548626 47.945494974840216 117.80695087610542 H 0.0 **** 0.06
10201 C 50.669178102444505 116.51507727305017 57.25550793664708 C 0.0 **** -0.24
10202 H 50.853579208352286 117.10369923711733 56.35758376980576 H 0.0 **** 0.06
10203 H 50.579701171316046 117.18071201272681 58.114111309259684 H 0.0 **** 0.06
10204 H 51.498866627072175 115.82521467232846 57.41494163432664 H 0.0 **** 0.06
10205 H 49.7447855606315 115.9492864944707 57.13542569130507 H 0.0 **** 0.06
10206 C 119.70663755183207 24.28466764812177 68.66587632675282 C 0.0 **** -0.24
10207 H 120.05473657370874 23.4762217265546 69.30904174113482 H 0.0 **** 0.06
10208 H 120.35748954122136 25.15113660240152 68.7870694068024 H 0.0 **** 0.06
10209 H 118.68729804370741 24.55406746123961 68.94021026485996 H 0.0 **** 0.06
10210 H 119.72852535077811 23.955778057226297 67.62640863173567 H 0.0 **** 0.06
10211 C 85.90692020692438 3.5080976721470734 74.17025149375502 C 0.0 **** -0.24
10212 H 85.47779662309027 4.032648488997324 73.31691051512746 H 0.0 **** 0.06
10213 H 85.24027508036907 3.602668847466333 75.02726842641334 H 0.0 **** 0.06
10214 H 86.87638634988522 3.9448695870841846 74.41381106613846 H 0.0 **** 0.06
10215 H 86.03512920901716 2.4547267865376625 73.9229952577416 H 0.0 **** 0.06
10216 C 47.22616983357341 104.13922927740454 48.09385880798672 C 0.0 **** -0.24
10217 H 46.83456446379293 103.50723171669088 47.29652085528622 H 0.0 **** 0.06
10218 H 48.31452271074647 104.07801315369625 48.10463312338011 H 0.0 **** 0.06
10219 H 46.83378114971427 103.7978383512453 49.05248850889102 H 0.0 **** 0.06
10220 H 46.921210721524915 105.17124939344397 47.923192939092665 H 0.0 **** 0.06
10221 C 59.52753094002921 36.58385672759448 70.2732347272701 C 0.0 **** -0.24
10222 H 58.60778077992126 36.016359994339496 70.13042511161544 H 0.0 **** 0.06
10223 H 60.29585197103093 36.20513320270874 69.59835783739027 H 0.0 **** 0.06
10224 H 59.86389713490591 36.4754776571159 71.30391468661549 H 0.0 **** 0.06
10225 H 59.34168003106832 37.636017128590595 70.05913810970603 H 0.0 **** 0.06
10226 C 18.572728723753244 42.37232015077189 116.83404392313456 C 0.0 **** -0.24
10227 H 17.66944024476564 42.74258703457858 116.34786607446834 H 0.0 **** 0.06
10228 H 19.412981102628436 42.44915305802879 116.14322978568593 H 0.0 **** 0.06
10229 H 18.429632547728573 41.33036974477731 117.11830303115578 H 0.0 **** 0.06
10230 H 18.776859465730524 42.96744642102467 117.72362741105881 H 0.0 **** 0.06
10231 C 112.19208472278059 18.066551597193637 76.41993431665989 C 0.0 **** -0.24
10232 H 112.289900974375 17.007751290372397 76.65782990615861 H 0.0 **** 0.06
10233 H 113.0153862240309 18.61879266819517 76.87354751401412 H 0.0 **** 0.06
10234 H 111.24491677580667 18.44150579364637 76.81014683014328 H 0.0 **** 0.06
10235 H 112.21694943427089 18.200912082057442 75.33826453885382 H 0.0 **** 0.06
10236 C 125.45418125721466 103.50204513307268 82.60138020228482 C 0.0 **** -0.24
10237 H 124.52977318362366 102.95128387211656 82.77569091610644 H 0.0 **** 0.06
10238 H 125.2325974017066 104.41610699461343 82.04901522498119 H 0.0 **** 0.06
10239 H 126.14046387323472 102.88489705335525 82.02121392641305 H 0.0 **** 0.06
10240 H 125.91219107959455 103.75661082363594 83.5563454863502 H 0.0 **** 0.06
10241 C 130.62078898159996 38.92913297587833 76.72348396578786 C 0.0 **** -0.24
10242 H 130.02339664271648 39.30293479298774 75.89240573870849 H 0.0 **** 0.06
10243 H 131.182444116451 39.75120126041216 77.16655696735913 H 0.0 **** 0.06
10244 H 131.3137507774146 38.170401618651624 76.35981770687386 H 0.0 **** 0.06
10245 H 129.96419935212657 38.489912453857954 77.47464231804325 H 0.0 **** 0.06
10246 C 33.23695357740572 119.77201897458895 70.652729247303 C 0.0 **** -0.24
10247 H 33.28804889530905 120.83628676670213 70.88037754786403 H 0.0 **** 0.06
10248 H 33.28039367972228 119.62936351087879 69.5727427315793 H 0.0 **** 0.06
10249 H 32.302345936879625 119.36289601431112 71.03745574134071 H 0.0 **** 0.06
10250 H 34.07683476994757 119.2599238253011 71.12229246111296 H 0.0 **** 0.06
10251 C 43.135671170540206 51.658360499028845 125.108498478753 C 0.0 **** -0.24
10252 H 43.67871388115509 52.297343766409995 124.41099037257453 H 0.0 **** 0.06
10253 H 43.679437081964835 50.72168029555303 125.24142494758301 H 0.0 **** 0.06
10254 H 42.14236634353637 51.448733899743615 124.71109855073915 H 0.0 **** 0.06
10255 H 43.043385249271836 52.165278147692845 126.0686491101444 H 0.0 **** 0.06
10256 C 2.8673142543472068 39.649407920465904 16.052086213359644 C 0.0 **** -0.24
10257 H 2.646401043338699 40.421869883526824 15.314910261031741 H 0.0 **** 0.06
10258 H 3.6968640109658963 39.03742193403072 15.697802670684382 H 0.0 **** 0.06
10259 H 1.9876706300354385 39.02375708654125 16.196455473534854 H 0.0 **** 0.06
10260 H 3.139466853953479 40.11845617687605 16.997256635653628 H 0.0 **** 0.06
10261 C 95.8148472533174 84.26835224877416 23.451953039289947 C 0.0 **** -0.24
10262 H 96.85451814898168 84.59416243752509 23.437135020971994 H 0.0 **** 0.06
10263 H 95.47031609555522 84.19868256817986 24.48441609759425 H 0.0 **** 0.06
10264 H 95.73436761030221 83.29122643771501 22.975655184396032 H 0.0 **** 0.06
10265 H 95.20034095576064 84.98756207045076 22.91151372896519 H 0.0 **** 0.06
10266 C 68.05375198259006 105.79388451501238 48.621120121159166 C 0.0 **** -0.24
10267 H 68.1382489528368 104.8724777499453 48.04554105025938 H 0.0 **** 0.06
10268 H 67.79210476064918 105.55551187194115 49.65215295066511 H 0.0 **** 0.06
10269 H 67.27764200171282 106.42350823944709 48.1843870086888 H 0.0 **** 0.06
10270 H 69.00561020575896 106.3242406462415 48.599400340837164 H 0.0 **** 0.06
10271 C 119.63264733472232 55.125092547920985 63.02228210821073 C 0.0 **** -0.24
10272 H 119.8201680127639 56.132078331030996 63.396369203428065 H 0.0 **** 0.06
10273 H 120.45134330579064 54.822375196976225 62.36805073957723 H 0.0 **** 0.06
10274 H 118.6970039852711 55.1134724032071 62.463483442605934 H 0.0 **** 0.06
10275 H 119.56422998471065 54.43303751832232 63.86123939944531 H 0.0 **** 0.06
10276 C 79.35413103571943 102.69580824773111 40.047625475435005 C 0.0 **** -0.24
10277 H 78.75910163723702 102.90537583889049 40.93594346610016 H 0.0 **** 0.06
10278 H 79.94529272945323 103.57362471130789 39.79038148266087 H 0.0 **** 0.06
10279 H 78.69196443492783 102.44718139111293 39.21800413184737 H 0.0 **** 0.06
10280 H 80.01848437922482 101.85371116991577 40.24631548694026 H 0.0 **** 0.06
10281 C 0.2231410721412317 50.66674579488566 75.75259560370083 C 0.0 **** -0.24
10282 H 0.7742290108651844 49.80154605558556 76.12073680954289 H 0.0 **** 0.06
10283 H 0.501872348959779 51.547976613620875 76.33111840909666 H 0.0 **** 0.06
10284 H -0.8465440573484386 50.488127251670875 75.8552237134425 H 0.0 **** 0.06
10285 H 0.4651158025369284 50.830779019704636 74.70209388948486 H 0.0 **** 0.06
10286 C 83.20578065927691 46.51774331334539 37.22535318737363 C 0.0 **** -0.24
10287 H 83.38613776946022 47.57409640263657 37.42365072266014 H 0.0 **** 0.06
10288 H 84.1586656989632 45.99076614970548 37.17160686930046 H 0.0 **** 0.06
10289 H 82.67669540327284 46.41121129799913 36.27905084847771 H 0.0 **** 0.06
10290 H 82.60219340021317 46.09624509523613 38.029070260327615 H 0.0 **** 0.06
10291 C 127.4768682110145 63.05041114906888 8.7551995219562 C 0.0 **** -0.24
10292 H 127.10747885730376 62.23224302989068 8.136454876092387 H 0.0 **** 0.06
10293 H 128.51129763395957 62.852231398805614 9.038037095667619 H 0.0 **** 0.06
10294 H 126.86338613498407 63.132649544050935 9.651772996316907 H 0.0 **** 0.06
10295 H 127.42574818726823 63.98279916288084 8.193174798821104 H 0.0 **** 0.06
10296 C 41.20261754103934 49.11666272176555 77.77848227855291 C 0.0 **** -0.24
10297 H 40.44363696376797 48.50143105160693 78.26188165019849 H 0.0 **** 0.06
10298 H 40.73412567700317 49.73535337239679 77.01224158940919 H 0.0 **** 0.06
10299 H 41.95205083942995 48.47217284251019 77.31802375829669 H 0.0 **** 0.06
10300 H 41.67958275654149 49.756150798733415 78.52109903172077 H 0.0 **** 0.06
10301 C 41.136459164810454 19.098759418250296 98.57354934278214 C 0.0 **** -0.24
10302 H 41.34974025462389 18.850424956900213 99.61293454899032 H 0.0 **** 0.06
10303 H 41.88226939998396 19.80658060241828 98.20915417032955 H 0.0 **** 0.06
10304 H 40.14500020291262 19.545662142203895 98.50289858497632 H 0.0 **** 0.06
10305 H 41.171184332521406 18.192080324689044 97.96980880630787 H 0.0 **** 0.06
10306 C 130.53201077590165 4.657047626707197 79.03896123852002 C 0.0 **** -0.24
10307 H 130.00311519192857 3.724051477710674 79.23439187535712 H 0.0 **** 0.06
10308 H 130.41325029091908 4.928866835381456 77.99046770427753 H 0.0 **** 0.06
10309 H 131.59034724041425 4.528906805745606 79.26384625300847 H 0.0 **** 0.06
10310 H 130.11970693723924 5.446178666037866 79.66771334721335 H 0.0 **** 0.06
10311 C 8.632937487035406 55.72796896570898 109.75116660802769 C 0.0 **** -0.24
10312 H 8.905084037217307 55.279026283313044 108.7962204519151 H 0.0 **** 0.06
10313 H 9.378962771286467 55.466171191420614 110.50157494752892 H 0.0 **** 0.06
10314 H 7.657456302273374 55.354174993601475 110.06271436993491 H 0.0 **** 0.06
10315 H 8.589100618011798 56.81216688785156 109.64339965786449 H 0.0 **** 0.06
10316 C 90.20287625400749 36.6887677024082 34.11055538795094 C 0.0 **** -0.24
10317 H 89.12109564459689 36.63080882292193 33.98982860726453 H 0.0 **** 0.06
10318 H 90.47419549193779 36.35916281103665 35.11405078949946 H 0.0 **** 0.06
10319 H 90.5299725450069 37.71852225671646 33.965097254193324 H 0.0 **** 0.06
10320 H 90.68516438365458 36.04636015177579 33.37413557519186 H 0.0 **** 0.06
10321 C 45.491186894572046 57.46001356123372 116.00308360696954 C 0.0 **** -0.24
10322 H 46.03514303399234 56.61294936886327 116.42166032702839 H 0.0 **** 0.06
10323 H 45.85728153708456 58.383898319217224 116.45179975654437 H 0.0 **** 0.06
10324 H 44.42787133815215 57.34913070672363 116.21463139467342 H 0.0 **** 0.06
10325 H 45.646378745193 57.493170708374805 114.92492659846211 H 0.0 **** 0.06
10326 C 41.51434374235825 88.680698087344 20.666066756096683 C 0.0 **** -0.24
10327 H 40.79572915435338 88.6036141554442 21.483084326100453 H 0.0 **** 0.06
10328 H 41.114571174481824 88.18268334004038 19.782691026319043 H 0.0 **** 0.06
10329 H 42.45096583081562 88.20536198724434 20.960084122373274 H 0.0 **** 0.06
10330 H 41.695829804675014 89.73143506967904 20.440822330158056 H 0.0 **** 0.06
10331 C 96.2601590421485 65.80286132196261 119.78312993313682 C 0.0 **** -0.24
10332 H 95.56169698930542 64.96558193623794 119.79122364248565 H 0.0 **** 0.06
10333 H 96.38588731919823 66.15971824141565 118.7600243131833 H 0.0 **** 0.06
10334 H 97.22227765174536 65.47572513761466 120.17588698659807 H 0.0 **** 0.06
10335 H 95.86823683901585 66.6089373650914 120.40384717935507 H 0.0 **** 0.06
10336 C 2.2704454843347897 129.79982699879574 128.4966612494146 C 0.0 **** -0.24
10337 H 1.472331572959078 129.07349701712647 128.34485089722094 H 0.0 **** 0.06
10338 H 2.448588747521349 129.92720357240623 129.56473834966047 H 0.0 **** 0.06
10339 H 1.9794718969314502 130.75497754572356 128.06001580082886 H 0.0 **** 0.06
10340 H 3.1815008537440406 129.44422041327996 128.01541543036998 H 0.0 **** 0.06
10341 C 40.25058939505715 117.21863774101433 120.20158476804917 C 0.0 **** -0.24
10342 H 39.591658442164004 116.58727399370702 119.60511405234587 H 0.0 **** 0.06
10343 H 39.921558740524176 118.25590197411049 120.12993090237147 H 0.0 **** 0.06
10344 H 41.27047865563662 117.13433524761592 119.82791862220107 H 0.0 **** 0.06
10345 H 40.21639123131189 116.89724488343631 121.24247937192901 H 0.0 **** 0.06
10346 C 96.27943631574453 117.50815186094675 127.99296510857553 C 0.0 **** -0.24
10347 H 96.7007911070101 118.26820322742377 127.33535313656492 H 0.0 **** 0.06
10348 H 96.05939376733215 117.95068719543086 128.96423499761835 H 0.0 **** 0.06
10349 H 96.99608146949657 116.6961573297106 128.11672730705027 H 0.0 **** 0.06
10350 H 95.3604375634539 117.11830072946037 127.55371013056367 H 0.0 **** 0.06
10351 C 112.10126480248576 38.6661784379952 6.608805247284494 C 0.0 **** -0.24
10352 H 111.0625241921739 38.41581162077088 6.825454500568156 H 0.0 **** 0.06
10353 H 112.43673737025688 39.445879160450204 7.292712708155662 H 0.0 **** 0.06
10354 H 112.18135700066497 39.02379606122307 5.582143492732598 H 0.0 **** 0.06
10355 H 112.72215219763086 37.779954042383764 6.73442591829685 H 0.0 **** 0.06
10356 C 39.3188002113635 115.84305471199933 108.68310719331717 C 0.0 **** -0.24
10357 H 40.34516798932842 116.0713486837134 108.97178445286829 H 0.0 **** 0.06
10358 H 39.007582642050686 114.90960966164958 109.15327364831202 H 0.0 **** 0.06
10359 H 39.26172308303668 115.74101184661447 107.59875715662466 H 0.0 **** 0.06
10360 H 38.66258834419132 116.65067329502783 109.00744910700536 H 0.0 **** 0.06
10361 C 26.91456007000602 103.17519933694844 13.233204519912714 C 0.0 **** -0.24
10362 H 27.38569778111203 103.87166365743022 13.926840721814873 H 0.0 **** 0.06
10363 H 26.98274912181563 102.16254859983593 13.631096748769945 H 0.0 **** 0.06
10364 H 27.422156642748917 103.22311530670461 12.269620445756455 H 0.0 **** 0.06
10365 H 25.866008477836985 103.44472732890868 13.104384012157965 H 0.0 **** 0.06
10366 C 110.20605374691908 19.8288433362153 0.7155436359340399 C 0.0 **** -0.24
10367 H 109.26985066058239 20.380264918944704 0.627138301527367 H 0.0 **** 0.06
10368 H 110.09695470629933 18.851688182664475 0.2431118663345444 H 0.0 **** 0.06
10369 H 110.45108405212855 19.698037223410665 1.7690280056337713 H 0.0 **** 0.06
10370 H 111.00337558352629 20.384872188634404 0.22270364583789615 H 0.0 **** 0.06
10371 C 48.970105955389585 20.740711614008035 97.19540030690528 C 0.0 **** -0.24
10372 H 49.234417404940245 21.710874901397204 97.61735667937718 H 0.0 **** 0.06
10373 H 48.6648733339963 20.067530489369368 97.99756848481287 H 0.0 **** 0.06
10374 H 49.83260179890047 20.323232627485844 96.67752716699033 H 0.0 **** 0.06
10375 H 48.146563010617314 20.86378669175577 96.49169437450149 H 0.0 **** 0.06
10376 C 128.251784107679 17.33575251233949 36.604335577854386 C 0.0 **** -0.24
10377 H 128.1052675387993 16.258667198562605 36.516587886188915 H 0.0 **** 0.06
10378 H 128.70537043884858 17.56287838478825 37.56957223203884 H 0.0 **** 0.06
10379 H 127.2880731539959 17.83999093245589 36.52632700269385 H 0.0 **** 0.06
10380 H 128.90731219174742 17.679075546490772 35.80384965693881 H 0.0 **** 0.06
10381 C 56.66866946844567 72.67170822745555 52.67440809621655 C 0.0 **** -0.24
10382 H 55.7185610892064 73.08114368143534 52.32867084672836 H 0.0 **** 0.06
10383 H 56.861884613666604 73.01387438053162 53.69170587378585 H 0.0 **** 0.06
10384 H 57.47064195512118 73.01081652458845 52.018830371005095 H 0.0 **** 0.06
10385 H 56.62188308958899 71.58369155154884 52.65933790334117 H 0.0 **** 0.06
10386 C 20.542729232535038 15.689311072801228 67.80287711383204 C 0.0 **** -0.24
10387 H 19.852856085786584 16.296709489204428 68.38884527096687 H 0.0 **** 0.06
10388 H 19.986066883269984 15.136297796689252 67.04489364808515 H 0.0 **** 0.06
10389 H 21.05768954730766 14.988128974230762 68.45984288739993 H 0.0 **** 0.06
10390 H 21.273310442151185 16.33706985474808 67.31763164457125 H 0.0 **** 0.06
10391 C 111.88165972252517 21.519250361885526 96.89167292997251 C 0.0 **** -0.24
10392 H 112.04872949911973 20.52902016037288 97.316224860295 H 0.0 **** 0.06
10393 H 111.00014022585387 21.966926474005646 97.35137064043062 H 0.0 **** 0.06
10394 H 111.72666842129064 21.431131515720324 95.81604786902727 H 0.0 **** 0.06
10395 H 112.75130905097208 22.147698633620337 97.08313643394843 H 0.0 **** 0.06
10396 C 43.48512280240732 31.675765266041253 28.271881175905207 C 0.0 **** -0.24
10397 H 43.042230091422994 32.33350766404084 27.52437838488504 H 0.0 **** 0.06
10398 H 43.391734493594285 32.13239416448425 29.257753481312363 H 0.0 **** 0.06
10399 H 44.538890933135974 31.521182738954735 28.04100369312272 H 0.0 **** 0.06
10400 H 42.96728403446261 30.716904750043568 28.26426774003062 H 0.0 **** 0.06
10401 C 127.78638342579586 49.46661170783183 57.384937350596616 C 0.0 **** -0.24
10402 H 126.8473953906817 49.11504982863454 56.95727604831373 H 0.0 **** 0.06
10403 H 128.23385703910205 48.670735077911644 57.98099462272265 H 0.0 **** 0.06
10404 H 127.59438255986402 50.33192348301603 58.019825295775206 H 0.0 **** 0.06
10405 H 128.46743188876277 49.74798919986729 56.582816990348974 H 0.0 **** 0.06
10406 C 126.86184436405284 114.52837031722288 107.60591028559732 C 0.0 **** -0.24
10407 H 126.37039300422293 115.39236618669565 108.05543478888248 H 0.0 **** 0.06
10408 H 127.73285684542799 114.8603373504933 107.0412514563085 H 0.0 **** 0.06
10409 H 126.16559697807759 114.02209130539762 106.93758657000305 H 0.0 **** 0.06
10410 H 127.17696582638376 113.84161013286251 108.39110156625658 H 0.0 **** 0.06
10411 C 14.482302873141407 79.2008695629575 0.18964481761898355 C 0.0 **** -0.24
10412 H 15.426617992130502 79.74414839864427 0.16465483754220145 H 0.0 **** 0.06
10413 H 14.312042340606922 78.7217184087953 -0.7754246589575189 H 0.0 **** 0.06
10414 H 13.668713777873052 79.89582500292984 0.3980583553182555 H 0.0 **** 0.06
10415 H 14.520691335341326 78.4410648348016 0.9708833388717721 H 0.0 **** 0.06
10416 C 82.1074846840576 58.55310518208137 126.9197302915704 C 0.0 **** -0.24
10417 H 81.60801800096885 59.511135277935864 126.77367254062872 H 0.0 **** 0.06
10418 H 81.92526519410012 57.91387378803773 126.05630993741627 H 0.0 **** 0.06
10419 H 81.71673854524846 58.07288997711839 127.81673991867419 H 0.0 **** 0.06
10420 H 83.17975285127903 58.716728472488796 127.03187716997454 H 0.0 **** 0.06
10421 C 45.14172029963644 44.99221085564898 92.91349722169423 C 0.0 **** -0.24
10422 H 45.11117478124347 43.91428918635019 92.75365876492947 H 0.0 **** 0.06
10423 H 44.879449540144044 45.21371960140041 93.94835007664835 H 0.0 **** 0.06
10424 H 44.42998283023519 45.478134105849136 92.24591887183391 H 0.0 **** 0.06
10425 H 46.146125873645104 45.36129414077294 92.70607629763555 H 0.0 **** 0.06
10426 C 128.75433191516683 1.8512269037823614 73.68433831547726 C 0.0 **** -0.24
10427 H 127.82932401430614 1.3782729634104953 74.0138461484358 H 0.0 **** 0.06
10428 H 128.52851551732746 2.6070908975248983 72.93308072366466 H 0.0 **** 0.06
10429 H 129.41412861578354 1.0969224304207614 73.25571664015882 H 0.0 **** 0.06
10430 H 129.24535193061453 2.3211143204841562 74.53664086831115 H 0.0 **** 0.06
10431 C 14.723069378962975 26.117418161586187 10.349632861874511 C 0.0 **** -0.24
10432 H 13.75923504049473 25.627254992507467 10.484654600093364 H 0.0 **** 0.06
10433 H 15.320511718153057 26.000489166814653 11.25427963334883 H 0.0 **** 0.06
10434 H 14.566871694886231 27.177348329723102 10.151086279773693 H 0.0 **** 0.06
10435 H 15.246876406862839 25.66409978110792 9.507376263042858 H 0.0 **** 0.06
10436 C 58.2987676139613 78.04203307621171 93.38865984586418 C 0.0 **** -0.24
10437 H 59.00376815417158 77.23679018154732 93.18058624345586 H 0.0 **** 0.06
10438 H 58.73795984640637 78.7309763556386 94.11046787768 H 0.0 **** 0.06
10439 H 57.37987371595878 77.62227232777687 93.79767741810156 H 0.0 **** 0.06
10440 H 58.074887867421495 78.57652858284095 92.46517464739739 H 0.0 **** 0.06
10441 C 122.2290363271307 46.14004358450288 76.48760791886005 C 0.0 **** -0.24
10442 H 123.1845405399595 46.63613133553608 76.65511331839272 H 0.0 **** 0.06
10443 H 121.43646952103893 46.70142777366513 76.98277975010893 H 0.0 **** 0.06
10444 H 122.26756747094174 45.13009975890765 76.89539741208287 H 0.0 **** 0.06
10445 H 122.02709905947987 46.09187298197392 75.41774746994844 H 0.0 **** 0.06
10446 C 112.7976708768668 46.196840292720736 100.48624886594646 C 0.0 **** -0.24
10447 H 113.56710090007037 46.11815290095532 101.25402824889002 H 0.0 **** 0.06
10448 H 113.00408026808383 45.481523016687845 99.69038719215476 H 0.0 **** 0.06
10449 H 112.79418898917815 47.2064127734516 100.07689366501091 H 0.0 **** 0.06
10450 H 111.82363574941063 45.97963930689565 100.92623960536852 H 0.0 **** 0.06
10451 C 17.559021590378734 30.918296841819313 85.77182151377991 C 0.0 **** -0.24
10452 H 17.455215953888455 30.36956837014948 84.8360860335261 H 0.0 **** 0.06
10453 H 16.91872571016566 31.800049841478668 85.74857720890776 H 0.0 **** 0.06
10454 H 18.596705213352323 31.224597859575198 85.89940202419831 H 0.0 **** 0.06
10455 H 17.263681660043602 30.276816917956523 86.60270198498102 H 0.0 **** 0.06
10456 C 4.613605020632747 1.8446536815478716 1.1017241935687423 C 0.0 **** -0.24
10457 H 3.861365743349239 2.1583564081822075 1.8243458418169496 H 0.0 **** 0.06
10458 H 4.466736672204945 2.3850408207499854 0.16611533019519698 H 0.0 **** 0.06
10459 H 4.519548638136726 0.7730241947562675 0.921390607839669 H 0.0 **** 0.06
10460 H 5.607552124903904 2.0605891089639883 1.4941430257748607 H 0.0 **** 0.06
10461 C 94.14962671689713 67.90459792561987 46.38512113721083 C 0.0 **** -0.24
10462 H 93.2451421471915 67.43503906522125 45.99873066536179 H 0.0 **** 0.06
10463 H 94.48006778057615 68.68006463753139 45.69205280912399 H 0.0 **** 0.06
10464 H 94.93190804372003 67.15405989330222 46.49116814904994 H 0.0 **** 0.06
10465 H 93.9392763761636 68.35224805091048 47.356684102451425 H 0.0 **** 0.06
10466 C 16.06555158599724 112.46434016949974 33.87209433196924 C 0.0 **** -0.24
10467 H 16.593752364889923 112.16431160460661 34.77706795634202 H 0.0 **** 0.06
10468 H 16.47970192762915 111.93137468314416 33.01602787868703 H 0.0 **** 0.06
10469 H 16.180215188532145 113.53787833773822 33.72244632834631 H 0.0 **** 0.06
10470 H 15.006785200544357 112.22244930001668 33.9731789905147 H 0.0 **** 0.06
10471 C 44.94470372524589 30.494544251586262 82.33697269254867 C 0.0 **** -0.24
10472 H 45.47488762542474 29.602128092309925 82.00507229254956 H 0.0 **** 0.06
10473 H 44.84999022798408 31.191392930335752 81.50454088816642 H 0.0 **** 0.06
10474 H 45.503003651283905 30.967657612214538 83.14561197223078 H 0.0 **** 0.06
10475 H 43.953666685369456 30.216791485794346 82.69388497472893 H 0.0 **** 0.06
10476 C 122.894375644295 14.180095429241259 59.75888747620036 C 0.0 **** -0.24
10477 H 122.7827754657622 15.260739004204424 59.84846059147884 H 0.0 **** 0.06
10478 H 122.7205844782215 13.881706926432322 58.72458556044137 H 0.0 **** 0.06
10479 H 122.16996846870035 13.685979896003289 60.406600817709716 H 0.0 **** 0.06
10480 H 123.90344419801585 13.893923770248666 60.05667421805646 H 0.0 **** 0.06
10481 C 11.948533466201553 101.83529459099083 6.1432508558616234 C 0.0 **** -0.24
10482 H 11.038612637744194 102.37142650703493 6.411478523151914 H 0.0 **** 0.06
10483 H 11.686498214034117 100.8861773291581 5.674412412140271 H 0.0 **** 0.06
10484 H 12.536550046078531 101.6473498514249 7.04168769615103 H 0.0 **** 0.06
10485 H 12.532116388158755 102.43638242138627 5.446345674198199 H 0.0 **** 0.06
10486 C 27.3976368479359 112.5785527729339 6.986504748350736 C 0.0 **** -0.24
10487 H 27.158987222754405 112.35219991245327 8.024824115193226 H 0.0 **** 0.06
10488 H 26.66806656761193 113.28633011441036 6.592013997982516 H 0.0 **** 0.06
10489 H 27.368555488279867 111.66087373648497 6.399073111766192 H 0.0 **** 0.06
10490 H 28.395007700585325 113.01572688117233 6.929035531474742 H 0.0 **** 0.06
10491 C 10.270389873141614 117.87780982835426 91.58175371812769 C 0.0 **** -0.24
10492 H 10.796027519636976 117.91426283506388 92.53542905994868 H 0.0 **** 0.06
10493 H 10.783623967767252 117.18878649750826 90.91012647979943 H 0.0 **** 0.06
10494 H 10.254150418070772 118.87406831074469 91.13681222183908 H 0.0 **** 0.06
10495 H 9.247661119955811 117.53597044220868 91.74304303128781 H 0.0 **** 0.06
10496 C 78.28246138987286 66.5095474542735 74.5692733319172 C 0.0 **** -0.24
10497 H 78.55259195275184 66.56202129440646 73.51413519061447 H 0.0 **** 0.06
10498 H 77.3004338990447 66.0463206449677 74.66938551457494 H 0.0 **** 0.06
10499 H 78.25408639541088 67.5159260423722 74.98596916632945 H 0.0 **** 0.06
10500 H 79.02232275617648 65.91454865828698 75.10469845352915 H 0.0 **** 0.06
10501 C 28.191717328762834 45.65489673294518 99.58065960476573 C 0.0 **** -0.24
10502 H 27.964915976513886 46.4199238505689 98.83856992931877 H 0.0 **** 0.06
10503 H 29.136268452045414 45.89413343924706 100.07179867350497 H 0.0 **** 0.06
10504 H 28.271892443751327 44.68521739634922 99.09006571485398 H 0.0 **** 0.06
10505 H 27.39408607255009 45.62102763114348 100.32338821159101 H 0.0 **** 0.06
10506 C 68.05843443767614 83.04364020598791 30.217005031719737 C 0.0 **** -0.24
10507 H 67.74111280058625 82.18510027506436 30.80701139744079 H 0.0 **** 0.06
10508 H 69.14195878355984 83.02363831359428 30.100165892840494 H 0.0 **** 0.06
10509 H 67.7651932593248 83.96241212264695 30.7254647425286 H 0.0 **** 0.06
10510 H 67.58527920628302 83.00563521410406 29.23548618286887 H 0.0 **** 0.06
10511 C 107.62773417311902 81.4667765441979 6.721355808489488 C 0.0 **** -0.24
10512 H 107.11804709315923 81.95212960484957 5.889377488446197 H 0.0 **** 0.06
10513 H 107.85914559946137 82.2068255051077 7.486512444580139 H 0.0 **** 0.06
10514 H 108.55091522027409 81.0105952913429 6.364885822305197 H 0.0 **** 0.06
10515 H 106.9805841712824 80.69688135636653 7.143064020379228 H 0.0 **** 0.06
10516 C 14.800598293177757 21.28858818936081 48.42696275600895 C 0.0 **** -0.24
10517 H 15.373356283800746 20.68680419829448 47.72003144028554 H 0.0 **** 0.06
10518 H 14.623786975623716 20.711772479271104 49.334739083380555 H 0.0 **** 0.06
10519 H 13.846740351408613 21.563976246434493 47.9788502430244 H 0.0 **** 0.06
10520 H 15.361502206888787 22.191151176326173 48.672326564322816 H 0.0 **** 0.06
10521 C 119.54858261398289 34.47864694193433 128.35689472566585 C 0.0 **** -0.24
10522 H 119.6065510060082 33.48517615072609 128.80251784914876 H 0.0 **** 0.06
10523 H 118.51392410563773 34.82364862604314 128.37286888188223 H 0.0 **** 0.06
10524 H 119.90076260734963 34.43464162283766 127.32634135562702 H 0.0 **** 0.06
10525 H 120.17115618724694 35.16881014955584 128.92489760905275 H 0.0 **** 0.06
10526 C 15.260906195896268 118.0305932173411 48.322220524155 C 0.0 **** -0.24
10527 H 14.893818389207993 119.05675162031886 48.33490647570932 H 0.0 **** 0.06
10528 H 15.74125820615572 117.80552408449452 49.27459981788297 H 0.0 **** 0.06
10529 H 15.98168952739961 117.91270700528784 47.51388975758579 H 0.0 **** 0.06
10530 H 14.425106682665188 117.34836084084651 48.1668962530494 H 0.0 **** 0.06
10531 C 4.517986448897815 11.330506065446116 55.709623787252355 C 0.0 **** -0.24
10532 H 4.744512677499188 12.351761209489496 56.014568407560034 H 0.0 **** 0.06
10533 H 5.230849901190862 11.011999436850488 54.948466284000716 H 0.0 **** 0.06
10534 H 3.508198095451238 11.289291691196752 55.3010539188967 H 0.0 **** 0.06
10535 H 4.588731959322153 10.66988021573826 56.57297305401865 H 0.0 **** 0.06
10536 C 70.40715339468807 73.85966875070991 62.108624167704136 C 0.0 **** -0.24
10537 H 69.50043294771422 74.39077122628979 62.397919259244645 H 0.0 **** 0.06
10538 H 70.71911785410916 74.18779971682883 61.11726363936003 H 0.0 **** 0.06
10539 H 70.20983227299908 72.78755649251656 62.09141424575961 H 0.0 **** 0.06
10540 H 71.19762099869232 74.07203178058629 62.8282785052146 H 0.0 **** 0.06
10541 C 25.680003926565647 53.023342304489574 60.26004623625238 C 0.0 **** -0.24
10542 H 25.560527769444754 51.96113791810778 60.47023824962798 H 0.0 **** 0.06
10543 H 24.887472341484475 53.5834888593437 60.75712675420965 H 0.0 **** 0.06
10544 H 25.622442337550787 53.190193572965924 59.18432378127582 H 0.0 **** 0.06
10545 H 26.649619828257812 53.359935996348 60.6282244674928 H 0.0 **** 0.06
10546 C 58.061187561237304 44.82173215847456 104.46677467409842 C 0.0 **** -0.24
10547 H 57.23594949937113 44.47986072959361 103.84287766076594 H 0.0 **** 0.06
10548 H 58.252397830706684 44.08859140832061 105.25086891930923 H 0.0 **** 0.06
10549 H 57.802897013162465 45.77908450508596 104.91899024922307 H 0.0 **** 0.06
10550 H 58.95557519705247 44.93857035680719 103.85415398744658 H 0.0 **** 0.06
10551 C 55.61249874579346 18.07046730115499 67.19290252807286 C 0.0 **** -0.24
10552 H 55.08774626331257 18.92358951005047 67.62291508366474 H 0.0 **** 0.06
10553 H 55.26307848291168 17.905706077344227 66.17343270790388 H 0.0 **** 0.06
10554 H 55.4161343029167 17.182763862251726 67.79349809449775 H 0.0 **** 0.06
10555 H 56.68378209988242 18.27189142924543 67.18209611249569 H 0.0 **** 0.06
10556 C 64.53885726819453 69.37335290335477 98.79407966796833 C 0.0 **** -0.24
10557 H 64.36652860127498 68.42474175093935 99.30344322435985 H 0.0 **** 0.06
10558 H 64.2934918295303 70.19567460640474 99.4661260098759 H 0.0 **** 0.06
10559 H 63.9093678469531 69.42795042892817 97.90645948301977 H 0.0 **** 0.06
10560 H 65.58682791559158 69.44330799536363 98.50182754762557 H 0.0 **** 0.06
10561 C 0.47588514551725325 61.96410045986126 127.35899700928283 C 0.0 **** -0.24
10562 H -0.05216588231809283 62.122921078807664 128.29891698437908 H 0.0 **** 0.06
10563 H 0.2653380856371541 60.95967076048929 126.98912339400644 H 0.0 **** 0.06
10564 H 1.5478097291969561 62.07477991430788 127.52093582801555 H 0.0 **** 0.06
10565 H 0.14214280204430452 62.69840456419507 126.62581353802003 H 0.0 **** 0.06
10566 C 2.6784803677352897 79.11295229553882 130.37323842546368 C 0.0 **** -0.24
10567 H 2.9285230067203827 80.17124915651515 130.30963169580468 H 0.0 **** 0.06
10568 H 3.5837282709275087 78.53591373020518 130.5621436906436 H 0.0 **** 0.06
10569 H 2.2298765828372495 78.78829457576582 129.4338069276552 H 0.0 **** 0.06
10570 H 1.9700122643634188 78.95415536792217 131.1873140057417 H 0.0 **** 0.06
10571 C 57.49936574879813 109.38044417876624 42.463652714251396 C 0.0 **** -0.24
10572 H 57.117592788279254 109.71955073366735 41.50120190402156 H 0.0 **** 0.06
10573 H 58.58542540141238 109.30244371650315 42.41638947261352 H 0.0 **** 0.06
10574 H 57.07495129062913 108.40417175517501 42.699722704956756 H 0.0 **** 0.06
10575 H 57.2194935148716 110.09561050971956 43.23729677541378 H 0.0 **** 0.06
10576 C 84.06547793819473 49.27486692330926 0.9549456389993054 C 0.0 **** -0.24
10577 H 83.21631480842396 49.14454085845965 1.6263334597893788 H 0.0 **** 0.06
10578 H 83.76157915284577 49.87187208456186 0.09517949184106556 H 0.0 **** 0.06
10579 H 84.4120539391543 48.298402975624995 0.615948991243215 H 0.0 **** 0.06
10580 H 84.87197923633971 49.78299067883742 1.4841208519763711 H 0.0 **** 0.06
10581 C 73.76976025400937 3.1864705457049354 95.93099770725189 C 0.0 **** -0.24
10582 H 73.64412686709387 3.633722256906168 94.94516019240115 H 0.0 **** 0.06
10583 H 74.45405225895533 2.340355452926019 95.86205412814769 H 0.0 **** 0.06
10584 H 72.8030622306181 2.8428069361308417 96.29900004546164 H 0.0 **** 0.06
10585 H 74.17707254903219 3.9286192837285796 96.61720349608993 H 0.0 **** 0.06
10586 C 48.09656549820917 21.112156257384157 11.577958348675317 C 0.0 **** -0.24
10587 H 48.82413059947871 20.349870023435784 11.858743419509405 H 0.0 **** 0.06
10588 H 48.26005962140084 22.007757280108535 12.17782498490643 H 0.0 **** 0.06
10589 H 47.08933482141481 20.734587959430996 11.75453700563244 H 0.0 **** 0.06
10590 H 48.21412129955743 21.354140130150228 10.522440552274055 H 0.0 **** 0.06
10591 C 37.02053167438419 34.31775626138807 23.726905383680304 C 0.0 **** -0.24
10592 H 37.490688000740136 34.28922689402651 24.7107441248272 H 0.0 **** 0.06
10593 H 35.93707813788933 34.336488526832795 23.842070359336702 H 0.0 **** 0.06
10594 H 37.31210673875273 33.43342399010237 23.159652418538144 H 0.0 **** 0.06
10595 H 37.34485917373007 35.21351461414844 23.19590237384537 H 0.0 **** 0.06
10596 C 94.86351424091563 87.84188830567227 9.089423907703974 C 0.0 **** -0.24
10597 H 93.82937120892376 87.50649225296995 9.166690564381383 H 0.0 **** 0.06
10598 H 95.43815196372972 87.44433034661283 9.92695284249001 H 0.0 **** 0.06
10599 H 94.89362250373158 88.93192183159086 9.112488143251312 H 0.0 **** 0.06
10600 H 95.29250710736525 87.48644204299627 8.153036971709554 H 0.0 **** 0.06
10601 C 46.581191798545944 90.06169113619247 29.56235963310334 C 0.0 **** -0.24
10602 H 47.55955073411556 90.49854668858144 29.765501347029613 H 0.0 **** 0.06
10603 H 45.83779063061712 90.51555366599882 30.219889205281874 H 0.0 **** 0.06
10604 H 46.619356936467284 88.9874667027372 29.743137834430883 H 0.0 **** 0.06
10605 H 46.30913294802741 90.24713795602023 28.523575298573206 H 0.0 **** 0.06
10606 C 92.03472275738005 4.728786563598874 73.21555675650177 C 0.0 **** -0.24
10607 H 92.38200981125385 3.6958561185783942 73.24673192736964 H 0.0 **** 0.06
10608 H 92.2155095162484 5.201736477912817 74.18095098165043 H 0.0 **** 0.06
10609 H 90.96686928251991 4.746178790554676 72.99642445405783 H 0.0 **** 0.06
10610 H 92.57400119172465 5.270531580555684 72.4383138124901 H 0.0 **** 0.06
10611 C 73.59495425262145 20.678922761915658 35.76358193899188 C 0.0 **** -0.24
10612 H 73.97328091735409 21.230264664944883 34.902467231336175 H 0.0 **** 0.06
10613 H 74.15223224984635 19.74829438211208 35.870985503073 H 0.0 **** 0.06
10614 H 72.53815418074589 20.456717968820357 35.617284024455415 H 0.0 **** 0.06
10615 H 73.71792763469233 21.281906386332224 36.662808674518914 H 0.0 **** 0.06
10616 C 0.8413527591669947 48.50505449399306 71.7111801358179 C 0.0 **** -0.24
10617 H 0.1677711181664563 48.67272380092248 72.55124633225958 H 0.0 **** 0.06
10618 H 0.4383839004101162 47.71570565717053 71.07523982295217 H 0.0 **** 0.06
10619 H 1.8204670635593914 48.20584362999887 72.08444207422892 H 0.0 **** 0.06
10620 H 0.93787557354662 49.42376806275439 71.13313847650949 H 0.0 **** 0.06
10621 C 56.651633120379316 50.668458385148014 87.13801126849847 C 0.0 **** -0.24
10622 H 57.34047649839572 49.82426947304222 87.18426511009176 H 0.0 **** 0.06
10623 H 57.216840852242 51.58901353258801 86.98841857232634 H 0.0 **** 0.06
10624 H 56.09145854740295 50.73193878805827 88.07031920878342 H 0.0 **** 0.06
10625 H 55.960237119168454 50.5267165539679 86.30697918262109 H 0.0 **** 0.06
10626 C 43.23690754625568 97.96850244977392 96.02336361824499 C 0.0 **** -0.24
10627 H 44.0495200833185 97.24178103442372 95.98905028585627 H 0.0 **** 0.06
10628 H 42.98307589675585 98.27726122092929 95.00888196182984 H 0.0 **** 0.06
10629 H 43.55140183721835 98.83837093364197 96.59987781811054 H 0.0 **** 0.06
10630 H 42.364408970417685 97.51566057898962 96.49492271062407 H 0.0 **** 0.06
10631 C 99.81964333068525 57.70249349595997 103.82683201192471 C 0.0 **** -0.24
10632 H 98.786629022744 58.04940912228747 103.828681931177 H 0.0 **** 0.06
10633 H 99.89483536694559 56.78218372607199 104.40639355127125 H 0.0 **** 0.06
10634 H 100.46016152664102 58.46478364564186 104.27059168506972 H 0.0 **** 0.06
10635 H 100.13716827535727 57.51235600190114 102.80102053924956 H 0.0 **** 0.06
10636 C 119.49242524183913 86.5023464444417 3.4542089715709494 C 0.0 **** -0.24
10637 H 119.6165738423783 85.41958345527897 3.425072501859063 H 0.0 **** 0.06
10638 H 118.4475068355832 86.74162841480843 3.650020350732177 H 0.0 **** 0.06
10639 H 119.78942451743399 86.92712622266038 2.4952845509623103 H 0.0 **** 0.06
10640 H 120.115491641885 86.91811403693698 4.24508061292255 H 0.0 **** 0.06
10641 C 123.96685176688865 109.99943941420892 119.01088205269042 C 0.0 **** -0.24
10642 H 123.27829002896135 109.90749323719334 118.17103915527724 H 0.0 **** 0.06
10643 H 124.81760394737114 109.33531283131128 118.85797330287782 H 0.0 **** 0.06
10644 H 123.45289852896425 109.72716197048766 119.9322883073255 H 0.0 **** 0.06
10645 H 124.3182196532473 111.02893163632186 119.08149263063348 H 0.0 **** 0.06
10646 C 31.916482740278752 17.2296499029569 52.977551466402474 C 0.0 **** -0.24
10647 H 30.914774865417485 17.586626530606686 53.21644366012197 H 0.0 **** 0.06
10648 H 32.26672310161928 17.714295465280614 52.066878215884515 H 0.0 **** 0.06
10649 H 31.89095500832866 16.15022701690321 52.82905896222786 H 0.0 **** 0.06
10650 H 32.59166985045323 17.46713603216302 53.79910251482244 H 0.0 **** 0.06
10651 C 3.6699002130961276 18.964955619800435 57.530605881992955 C 0.0 **** -0.24
10652 H 2.7346501987317993 19.472563029837247 57.76582827535455 H 0.0 **** 0.06
10653 H 3.5543616104162084 17.89439677464896 57.699990243463986 H 0.0 **** 0.06
10654 H 4.463229735320226 19.352006117953202 58.16949758587958 H 0.0 **** 0.06
10655 H 3.9255483419770485 19.14238544789393 56.48526802178981 H 0.0 **** 0.06
10656 C 113.58882736606107 95.67726525815354 122.36260333271417 C 0.0 **** -0.24
10657 H 113.56032303201282 94.65199971888117 122.7327487044247 H 0.0 **** 0.06
10658 H 114.54279766434443 95.85762416059526 121.8668384479106 H 0.0 **** 0.06
10659 H 113.47764348235789 96.36855204401033 123.1985293128183 H 0.0 **** 0.06
10660 H 112.77591462141073 95.83088757919907 121.65375465064614 H 0.0 **** 0.06
10661 C 38.50178745069576 79.00892954937439 102.7524510919765 C 0.0 **** -0.24
10662 H 38.82822179507222 79.54342024444719 101.86092053872565 H 0.0 **** 0.06
10663 H 38.2140011720435 79.72677606311953 103.52132557897298 H 0.0 **** 0.06
10664 H 39.31806753444137 78.38791554530326 103.12232260884225 H 0.0 **** 0.06
10665 H 37.647653586122765 78.37759181373792 102.50584305910043 H 0.0 **** 0.06
10666 C 5.932477765442826 85.47672110579595 120.88655541760127 C 0.0 **** -0.24
10667 H 6.84099454220015 86.01382763091391 121.15789705404362 H 0.0 **** 0.06
10668 H 5.93480334762063 84.49541386334568 121.3632222546016 H 0.0 **** 0.06
10669 H 5.891395751117898 85.35493870813588 119.80409581423334 H 0.0 **** 0.06
10670 H 5.062625469344596 86.04139562843096 121.22281746185718 H 0.0 **** 0.06
10671 C 2.502430347271229 91.94640643250864 119.24659835955966 C 0.0 **** -0.24
10672 H 1.784538193738797 92.03852881220547 120.06227222389771 H 0.0 **** 0.06
10673 H 2.5403838401940106 90.91057993452898 118.91077189368535 H 0.0 **** 0.06
10674 H 3.488765640040697 92.2527347326236 119.59439730664869 H 0.0 **** 0.06
10675 H 2.1951901860037992 92.58660340104746 118.41952653360764 H 0.0 **** 0.06
10676 C 126.65239428170457 12.013973523783562 109.71075431408255 C 0.0 **** -0.24
10677 H 126.8242259049442 11.06302741727626 110.21503485762827 H 0.0 **** 0.06
10678 H 125.90632550679797 12.586965245167846 110.26235870284037 H 0.0 **** 0.06
10679 H 126.29303158618342 11.829078576858763 108.69945135891638 H 0.0 **** 0.06
10680 H 127.58422390234249 12.576724208100103 109.66859247539728 H 0.0 **** 0.06
10681 C 68.96600694151272 54.509576581580035 109.5729024023623 C 0.0 **** -0.24
10682 H 68.71119236236734 53.565684724793016 109.08972724701765 H 0.0 **** 0.06
10683 H 70.02173062556955 54.50456750118542 109.8452971882794 H 0.0 **** 0.06
10684 H 68.35966643098675 54.63406624048085 110.47050199046326 H 0.0 **** 0.06
10685 H 68.77187257141856 55.33330431864164 108.8854964327918 H 0.0 **** 0.06
10686 C 51.51185643894469 106.75103682941584 68.64351692247556 C 0.0 **** -0.24
10687 H 50.766076728918435 107.53774018149612 68.76156344370469 H 0.0 **** 0.06
10688 H 51.039116423147306 105.77911831150526 68.77773924174113 H 0.0 **** 0.06
10689 H 52.29672338751337 106.8800565501402 69.38920136525849 H 0.0 **** 0.06
10690 H 51.946484402945714 106.81083999477244 67.645378845545 H 0.0 **** 0.06
10691 C 118.53265447469937 38.44455998323758 123.78152577570518 C 0.0 **** -0.24
10692 H 119.44884376804478 38.76039953106627 124.28193971498598 H 0.0 **** 0.06
10693 H 117.99717464376224 39.3213284519866 123.41784205110872 H 0.0 **** 0.06
10694 H 117.90408525682105 37.89965335656254 124.48531973277369 H 0.0 **** 0.06
10695 H 118.78291643852951 37.79648498552231 122.94130185033947 H 0.0 **** 0.06
10696 C 100.82025611300435 91.07950184038154 61.288653362308565 C 0.0 **** -0.24
10697 H 100.61151894860575 90.05438412678568 61.59642925233942 H 0.0 **** 0.06
10698 H 101.8930140625082 91.26297874004554 61.34427753677025 H 0.0 **** 0.06
10699 H 100.29883416507295 91.77071750723667 61.951194344242765 H 0.0 **** 0.06
10700 H 100.47741355812798 91.22817075025553 60.26533086358282 H 0.0 **** 0.06
10701 C 110.80773900724537 53.74983796660243 9.060296038864863 C 0.0 **** -0.24
10702 H 111.29633917520758 53.29066322678503 8.201830072061767 H 0.0 **** 0.06
10703 H 110.48654389047837 52.97270947610514 9.754714891987277 H 0.0 **** 0.06
10704 H 109.94009470448773 54.31737481331723 8.723713558335191 H 0.0 **** 0.06
10705 H 111.50739431806377 54.41913268016688 9.561542023053846 H 0.0 **** 0.06
10706 C 103.13238994578529 79.2129257891398 81.18003425737959 C 0.0 **** -0.24
10707 H 102.6004600033653 79.46137658127822 80.2611298751915 H 0.0 **** 0.06
10708 H 103.9486362631784 79.91966277594565 81.3299951097477 H 0.0 **** 0.06
10709 H 103.53497941078365 78.20236924304126 81.10329625904188 H 0.0 **** 0.06
10710 H 102.44406793160033 79.26689879795802 82.02325674736011 H 0.0 **** 0.06
10711 C 17.720736007919157 36.983582432362994 126.57221855515405 C 0.0 **** -0.24
10712 H 17.076419063798795 37.52843257691346 127.26217903394951 H 0.0 **** 0.06
10713 H 17.118674174291215 36.28675781397662 125.98746512475275 H 0.0 **** 0.06
10714 H 18.47000735692663 36.43029568799031 127.13725892635443 H 0.0 **** 0.06
10715 H 18.214825039572276 37.68755766245701 125.90446842703724 H 0.0 **** 0.06
10716 C 63.7683742744306 58.191201335228584 62.61219758119418 C 0.0 **** -0.24
10717 H 63.00788791178776 58.931152545760426 62.86458270312248 H 0.0 **** 0.06
10718 H 64.64565682635202 58.343850521745026 63.24026284840484 H 0.0 **** 0.06
10719 H 64.04648353477715 58.30083271408202 61.56393584092669 H 0.0 **** 0.06
10720 H 63.369898458342035 57.19007184760929 62.78020444996628 H 0.0 **** 0.06
10721 C 74.45129849277734 55.253078905130565 120.45199959801073 C 0.0 **** -0.24
10722 H 75.49162456137176 55.55633888994805 120.57075369676268 H 0.0 **** 0.06
10723 H 74.22881570004526 54.43938619780046 121.14222351029453 H 0.0 **** 0.06
10724 H 74.28544395442191 54.91792332057456 119.42832071452982 H 0.0 **** 0.06
10725 H 73.79948916701582 56.10088449577326 120.66647299579009 H 0.0 **** 0.06
10726 C 54.57377224572403 104.57007577276204 95.43884061301499 C 0.0 **** -0.24
10727 H 54.788832588936856 105.60805938125941 95.69078999888424 H 0.0 **** 0.06
10728 H 55.504579019721376 104.00450849117681 95.40046289971302 H 0.0 **** 0.06
10729 H 54.08130440252458 104.5270558206767 94.46685643917688 H 0.0 **** 0.06
10730 H 53.91800253966656 104.14058949413997 96.1966421274491 H 0.0 **** 0.06
10731 C 9.902401133636147 79.11013549795621 9.667366431572788 C 0.0 **** -0.24
10732 H 9.564406064299078 79.6304271103829 8.771649739065452 H 0.0 **** 0.06
10733 H 10.774597233166617 79.61968415287875 10.076993829492295 H 0.0 **** 0.06
10734 H 10.166108107781326 78.08382653921063 9.412908194233069 H 0.0 **** 0.06
10735 H 9.102116256627141 79.10610740522608 10.408236480997516 H 0.0 **** 0.06
10736 C 43.27049573377626 75.21414554510699 72.77400533151518 C 0.0 **** -0.24
10737 H 42.555066936525655 74.40507249793774 72.91746908814781 H 0.0 **** 0.06
10738 H 43.637615150271905 75.55105507131441 73.74340038501128 H 0.0 **** 0.06
10739 H 42.782134675685896 76.04374809453816 72.26234569794241 H 0.0 **** 0.06
10740 H 44.106711913305254 74.85801784309677 72.17253378886403 H 0.0 **** 0.06
10741 C 119.14445766827156 36.9240647060939 114.7288965419523 C 0.0 **** -0.24
10742 H 119.37877991395456 37.908123802958755 114.32217147217251 H 0.0 **** 0.06
10743 H 119.03959129557187 36.99478372500861 115.81175403974346 H 0.0 **** 0.06
10744 H 119.94790510558903 36.22877371115086 114.48539885071504 H 0.0 **** 0.06
10745 H 118.20982635902772 36.565857651968216 114.29564883811959 H 0.0 **** 0.06
10746 C 45.93497451301888 54.065417788411196 105.55254485360021 C 0.0 **** -0.24
10747 H 45.96483193662943 53.13032020702997 104.99356587560325 H 0.0 **** 0.06
10748 H 45.224715602114074 54.74681882798808 105.08334508982279 H 0.0 **** 0.06
10749 H 46.92674382574655 54.51902580639796 105.55351272560719 H 0.0 **** 0.06
10750 H 45.625754690024074 53.86616211418044 106.57803628830993 H 0.0 **** 0.06
10751 C 90.20665081712198 8.996803649880889 94.32398564307083 C 0.0 **** -0.24
10752 H 89.72733601042623 8.070892345171018 94.00654741943976 H 0.0 **** 0.06
10753 H 89.44628097544538 9.707941770077696 94.64662125844137 H 0.0 **** 0.06
10754 H 90.76947035083137 9.417659224255743 93.4906626328322 H 0.0 **** 0.06
10755 H 90.88513212043674 8.789191267806842 95.15189368901422 H 0.0 **** 0.06
10756 C 11.049759738498594 129.56839139416232 22.260982863884976 C 0.0 **** -0.24
10757 H 10.22760359544472 128.8591298196554 22.166036775483718 H 0.0 **** 0.06
10758 H 10.649575131506197 130.5672125330257 22.434522691092354 H 0.0 **** 0.06
10759 H 11.638289655305744 129.5665152123216 21.344434778335284 H 0.0 **** 0.06
10760 H 11.683218185736116 129.28017213149988 23.100546193046455 H 0.0 **** 0.06
10761 C 47.69854083666448 76.1592723437727 107.13065599688173 C 0.0 **** -0.24
10762 H 47.05218885703668 75.6026762650073 107.80945965533095 H 0.0 **** 0.06
10763 H 48.23460517783757 76.92743986738225 107.68809133107587 H 0.0 **** 0.06
10764 H 47.09359220386006 76.62820324398173 106.35499602056643 H 0.0 **** 0.06
10765 H 48.41410276582033 75.4779383760765 106.66962708427332 H 0.0 **** 0.06
10766 C 82.29609605308269 105.13186002964284 114.45217654200624 C 0.0 **** -0.24
10767 H 83.09275827215394 105.47600575135907 113.79237314713603 H 0.0 **** 0.06
10768 H 81.7500118375304 104.32066288033546 113.96883320338085 H 0.0 **** 0.06
10769 H 81.61426630603474 105.95705346644513 114.6583014311258 H 0.0 **** 0.06
10770 H 82.7278906942519 104.7745221364012 115.38618853270592 H 0.0 **** 0.06
10771 C 22.25895024513798 57.70752120117629 7.687124908899534 C 0.0 **** -0.24
10772 H 22.901190476120348 58.288578620799115 7.025301495210016 H 0.0 **** 0.06
10773 H 21.533862462297776 57.150289885963076 7.093383823494463 H 0.0 **** 0.06
10774 H 21.73286216492508 58.380982680730085 8.364754243627061 H 0.0 **** 0.06
10775 H 22.867119910317427 57.01232072705943 8.265299962732655 H 0.0 **** 0.06
10776 C 20.443088246840972 127.86632876840636 60.48418509602598 C 0.0 **** -0.24
10777 H 20.775674350199353 127.73740867079002 61.514754661534795 H 0.0 **** 0.06
10778 H 21.301727568839112 127.80202473896944 59.8147584339105 H 0.0 **** 0.06
10779 H 19.969508933557393 128.8428318692779 60.37514891662238 H 0.0 **** 0.06
10780 H 19.726591251386864 127.08538034338235 60.233577897580545 H 0.0 **** 0.06
10781 C 117.91846254828884 9.016360889896646 94.80700582250394 C 0.0 **** -0.24
10782 H 118.0881445491355 9.234891728956342 93.75220545309277 H 0.0 **** 0.06
10783 H 118.84762788297957 8.670038430713873 95.2604240047308 H 0.0 **** 0.06
10784 H 117.1569323546654 8.241503414982532 94.89969440515829 H 0.0 **** 0.06
10785 H 117.58127328038925 9.92013102562737 95.31484676772408 H 0.0 **** 0.06
10786 C 95.31403390138655 77.54758975480225 4.653978298017947 C 0.0 **** -0.24
10787 H 95.53798202216427 76.48555408549119 4.559263533001257 H 0.0 **** 0.06
10788 H 96.2448277683024 78.10925852983222 4.73153099460194 H 0.0 **** 0.06
10789 H 94.7127914408172 77.71410491094713 5.548379626256661 H 0.0 **** 0.06
10790 H 94.75954185415287 77.8815536622053 3.776787801282012 H 0.0 **** 0.06
10791 C 34.30514900262045 109.0558300086251 31.887242295979107 C 0.0 **** -0.24
10792 H 35.30923782033605 109.2299283311651 31.502047771805948 H 0.0 **** 0.06
10793 H 34.092631488102484 109.77021947122418 32.68295110142806 H 0.0 **** 0.06
10794 H 34.23761783918124 108.04235545004342 32.2810268252228 H 0.0 **** 0.06
10795 H 33.58051726016919 109.18271093117964 31.08269362711468 H 0.0 **** 0.06
10796 C 126.8750758237377 75.71602980645264 13.652660601263449 C 0.0 **** -0.24
10797 H 127.21061294786843 75.46946695894553 14.660004669205065 H 0.0 **** 0.06
10798 H 127.64441654033338 76.300616787306 13.147280105486061 H 0.0 **** 0.06
10799 H 125.95389652262537 76.29519804965028 13.708097536102372 H 0.0 **** 0.06
10800 H 126.69283535512113 74.79606813514138 13.09635811561644 H 0.0 **** 0.06
10801 C 91.38374109519188 94.772370310812 121.70682052789638 C 0.0 **** -0.24
10802 H 90.81922776760013 94.13994557255117 122.39188484202823 H 0.0 **** 0.06
10803 H 90.71041064119206 95.18624928345665 120.95588391816605 H 0.0 **** 0.06
10804 H 92.15549811995967 94.17888893472755 121.2156062390481 H 0.0 **** 0.06
10805 H 91.85060975442397 95.58553685313584 122.26360626895807 H 0.0 **** 0.06
10806 C 8.202405276759848 93.5215219943727 95.59171215875165 C 0.0 **** -0.24
10807 H 7.730498897393005 93.03648507471658 94.73706132881415 H 0.0 **** 0.06
10808 H 9.074607346220631 92.94586544901102 95.90064666794447 H 0.0 **** 0.06
10809 H 7.491175793423196 93.5749800146884 96.41634684557769 H 0.0 **** 0.06
10810 H 8.512056706384413 94.52873250937122 95.31338963993147 H 0.0 **** 0.06
10811 C 106.8496502467431 28.98419340439338 49.53544137460632 C 0.0 **** -0.24
10812 H 106.16987741675912 28.26666944093256 49.99510727278857 H 0.0 **** 0.06
10813 H 106.57047430531783 29.133798530416925 48.492838129298605 H 0.0 **** 0.06
10814 H 107.86993561523843 28.603045900814777 49.588609709461636 H 0.0 **** 0.06
10815 H 106.79002917425898 29.934027340157314 50.067548821649325 H 0.0 **** 0.06
10816 C 124.23963206857779 62.88725165028977 61.539114827864395 C 0.0 **** -0.24
10817 H 123.56515826181719 62.09517742277734 61.86485089959612 H 0.0 **** 0.06
10818 H 124.05548124499005 63.78634568386282 62.129062271841065 H 0.0 **** 0.06
10819 H 124.06444166069153 63.10193434725265 60.48517929855778 H 0.0 **** 0.06
10820 H 125.27179779029143 62.56611451407991 61.67908743760222 H 0.0 **** 0.06
10821 C 128.2677369165325 24.179357827693934 57.41891656704139 C 0.0 **** -0.24
10822 H 127.66563958696906 25.08783191804463 57.38909815057076 H 0.0 **** 0.06
10823 H 128.83562080387765 24.15096974988836 58.34904370660789 H 0.0 **** 0.06
10824 H 128.9548579691146 24.171307262346204 56.57231432055711 H 0.0 **** 0.06
10825 H 127.61418235176242 23.309655419899684 57.364837648708374 H 0.0 **** 0.06
10826 C 34.745973120815904 56.11073571134837 114.2454304626262 C 0.0 **** -0.24
10827 H 35.641256515711206 56.04645657586836 114.8625100465088 H 0.0 **** 0.06
10828 H 34.940430258264314 55.65822570934198 113.27297501501 H 0.0 **** 0.06
10829 H 34.471869690657826 57.15735586532884 114.11150117596922 H 0.0 **** 0.06
10830 H 33.92878471914079 55.58123080371597 114.73543367515681 H 0.0 **** 0.06
10831 C 63.745454850933186 40.215349220213824 102.4609194670928 C 0.0 **** -0.24
10832 H 63.42551504524215 40.50621573967936 103.46117174668203 H 0.0 **** 0.06
10833 H 63.202932843934775 40.80220210307074 101.71987896731704 H 0.0 **** 0.06
10834 H 63.54050012286547 39.1562216926377 102.30736860740339 H 0.0 **** 0.06
10835 H 64.81580718719727 40.396518329732345 102.35582817821933 H 0.0 **** 0.06
10836 C 104.74866611682967 3.5572990267125206 19.860426636124828 C 0.0 **** -0.24
10837 H 104.43959560221498 3.4607002832273537 18.819751107479846 H 0.0 **** 0.06
10838 H 104.30052469452613 4.453088428919983 20.29124809040087 H 0.0 **** 0.06
10839 H 105.8348846233198 3.6344568295907713 19.910301589338843 H 0.0 **** 0.06
10840 H 104.42041305676202 2.681004941077969 20.41921019106252 H 0.0 **** 0.06
10841 C 61.42346622674941 119.66510492673382 104.13660971727356 C 0.0 **** -0.24
10842 H 60.515128918036766 119.69299765534583 103.53481091856152 H 0.0 **** 0.06
10843 H 61.18520137765017 119.3073881948709 105.13798978348613 H 0.0 **** 0.06
10844 H 61.84878773791482 120.66709707547216 104.19952121998057 H 0.0 **** 0.06
10845 H 62.14496428468942 118.99208121844731 103.67206243389457 H 0.0 **** 0.06
10846 C 102.39199873522458 13.311497282428363 20.621038300337204 C 0.0 **** -0.24
10847 H 102.7449859971741 12.59674010962037 19.87763084264668 H 0.0 **** 0.06
10848 H 101.54738326905607 13.870339569254622 20.215579803252922 H 0.0 **** 0.06
10849 H 103.19726704823591 14.001441566941413 20.873126169616796 H 0.0 **** 0.06
10850 H 102.07729974983778 12.776530412884824 21.51781003311129 H 0.0 **** 0.06
10851 C 66.47522717700728 64.44835205919162 83.52892594394947 C 0.0 **** -0.24
10852 H 66.58846897173952 63.87728589159299 82.60723010583457 H 0.0 **** 0.06
10853 H 65.71218628118882 63.98273581772007 84.15329972600497 H 0.0 **** 0.06
10854 H 66.17661586954337 65.46893729084395 83.28843567514514 H 0.0 **** 0.06
10855 H 67.42449401141326 64.46427873823772 84.06524239685832 H 0.0 **** 0.06
10856 C 13.841485409896165 38.11000307383188 63.3145246181096 C 0.0 **** -0.24
10857 H 13.676711943107208 38.04887847224728 64.38998634402846 H 0.0 **** 0.06
10858 H 14.5884683480285 38.87477429435461 63.10372875764972 H 0.0 **** 0.06
10859 H 12.905973126861042 38.368764071450784 62.81801780525012 H 0.0 **** 0.06
10860 H 14.193125117463254 37.14603597817327 62.94546977239939 H 0.0 **** 0.06
10861 C 96.6225372093759 108.06572733477799 56.46587178473982 C 0.0 **** -0.24
10862 H 96.45160993137114 107.04160148774645 56.13664467203722 H 0.0 **** 0.06
10863 H 95.67764286147604 108.60969350488728 56.46414502414433 H 0.0 **** 0.06
10864 H 97.32380719988265 108.5535505539579 55.7879769230737 H 0.0 **** 0.06
10865 H 97.03624353433972 108.05957560272685 57.47472744916922 H 0.0 **** 0.06
10866 C 93.38545510048007 42.71560135349682 64.81745471072236 C 0.0 **** -0.24
10867 H 92.90199529757459 42.183355990001246 65.63698933024872 H 0.0 **** 0.06
10868 H 94.46111708025018 42.74742400022245 64.99056476225776 H 0.0 **** 0.06
10869 H 92.99552795005582 43.732288729981576 64.76583998468595 H 0.0 **** 0.06
10870 H 93.18188749697364 42.19926656522102 63.879790037432215 H 0.0 **** 0.06
10871 C 128.3292548246072 94.21560716411791 90.21566551651634 C 0.0 **** -0.24
10872 H 127.46563699850208 93.62689842034025 90.52769248431045 H 0.0 **** 0.06
10873 H 129.133322960065 94.09192400020498 90.94214157352647 H 0.0 **** 0.06
10874 H 128.04923165129568 95.2681057087431 90.15813828436475 H 0.0 **** 0.06
10875 H 128.66608761330215 93.87455456626296 89.2376219749824 H 0.0 **** 0.06
10876 C 66.05287299986134 5.2960541972535395 42.893292755589414 C 0.0 **** -0.24
10877 H 67.08070817552016 5.37565138727112 43.24656117960919 H 0.0 **** 0.06
10878 H 65.49524372832158 4.624189760162949 43.54668644164303 H 0.0 **** 0.06
10879 H 66.04812087167221 4.9030888716511924 41.87668116264584 H 0.0 **** 0.06
10880 H 65.58832441664825 6.281682481489781 42.903087014573146 H 0.0 **** 0.06
10881 C 70.56863088037265 77.98419946022238 2.4840349193369597 C 0.0 **** -0.24
10882 H 69.52784834768006 78.10552135084521 2.785194708273938 H 0.0 **** 0.06
10883 H 71.16555643532801 77.69563062103984 3.349702537548719 H 0.0 **** 0.06
10884 H 70.9425247072611 78.92649246195083 2.0825279822544402 H 0.0 **** 0.06
10885 H 70.63806613595689 77.2106499255834 1.71940865869648 H 0.0 **** 0.06
10886 C 24.930381639640572 104.22077335238839 62.034774471341095 C 0.0 **** -0.24
10887 H 24.06990866837409 103.87334721518124 62.60740425233857 H 0.0 **** 0.06
10888 H 25.61992647528198 103.39156995037314 61.876802632236505 H 0.0 **** 0.06
10889 H 25.435432360677012 105.01385327711813 62.58649767303939 H 0.0 **** 0.06
10890 H 24.594824263343966 104.60399559117963 61.071192391835936 H 0.0 **** 0.06
10891 C 65.3228309400604 99.14705541972421 24.483208334489333 C 0.0 **** -0.24
10892 H 66.0886528574383 98.61517913484575 25.047771775015427 H 0.0 **** 0.06
10893 H 65.44440156958547 100.22038319522632 24.628564892512046 H 0.0 **** 0.06
10894 H 64.33581217917894 98.84199889423927 24.831055945644422 H 0.0 **** 0.06
10895 H 65.42357363314754 98.91021652504226 23.423306073372288 H 0.0 **** 0.06
10896 C 4.130671054254034 5.873683792740252 83.5893430673271 C 0.0 **** -0.24
10897 H 3.6438835753228673 4.904870083338523 83.6954248493397 H 0.0 **** 0.06
10898 H 3.5691515366380138 6.624506541025966 84.145542238571 H 0.0 **** 0.06
10899 H 4.164387274868343 6.149965288096041 82.53583313409246 H 0.0 **** 0.06
10900 H 5.146005296969712 5.815242258213402 83.98176559996618 H 0.0 **** 0.06
10901 C 22.80147702025937 11.77939410132987 126.2018674524773 C 0.0 **** -0.24
10902 H 23.717574196200246 11.229738561083678 126.41582344489063 H 0.0 **** 0.06
10903 H 21.981127569810667 11.359649655325626 126.78385528375486 H 0.0 **** 0.06
10904 H 22.570865301258493 11.701607342789288 125.13907727495382 H 0.0 **** 0.06
10905 H 22.937333006900985 12.828683681334525 126.46794285275371 H 0.0 **** 0.06
10906 C 37.100867197384886 29.8926710025952 112.57725526134868 C 0.0 **** -0.24
10907 H 37.48298699952561 30.894022904614538 112.7793551788132 H 0.0 **** 0.06
10908 H 37.814103168048746 29.350763974958674 111.95484479699866 H 0.0 **** 0.06
10909 H 36.145706954548366 29.9667992661511 112.0562308403492 H 0.0 **** 0.06
10910 H 36.9619891184662 29.361089911233094 113.51804579478949 H 0.0 **** 0.06
10911 C 128.54230920999302 11.767734500222303 99.69744206049889 C 0.0 **** -0.24
10912 H 128.6073583875687 12.036155643787708 98.64240119114447 H 0.0 **** 0.06
10913 H 127.88641531416428 12.471750658090428 100.2111705966357 H 0.0 **** 0.06
10914 H 129.53628139414923 11.805755495041694 100.14365971479833 H 0.0 **** 0.06
10915 H 128.13953217636848 10.7595101491099 99.79159492095097 H 0.0 **** 0.06
10916 C 13.11182996567726 125.1548445267186 65.60836477782539 C 0.0 **** -0.24
10917 H 13.501050059042711 125.21259425721867 64.59190958848413 H 0.0 **** 0.06
10918 H 12.572122882683459 124.21603995004153 65.7376194509154 H 0.0 **** 0.06
10919 H 12.435384993524849 125.99031818023897 65.78671949326902 H 0.0 **** 0.06
10920 H 13.939016688297272 125.19904338881861 66.31705446635196 H 0.0 **** 0.06
10921 C 27.828314162915945 16.72539618744952 95.1541697927072 C 0.0 **** -0.24
10922 H 26.83043059015546 16.979278488175964 95.51207569467485 H 0.0 **** 0.06
10923 H 27.876245611799618 16.87459281008489 94.07516680247576 H 0.0 **** 0.06
10924 H 28.04345426888193 15.683097981501504 95.38759344502301 H 0.0 **** 0.06
10925 H 28.563176832613863 17.366244042300934 95.64337472025494 H 0.0 **** 0.06
10926 C 97.60250252910134 51.15235177943012 29.651989801422758 C 0.0 **** -0.24
10927 H 97.9295083103575 51.454407946528846 28.65677234276228 H 0.0 **** 0.06
10928 H 96.81878160337172 50.40006031647448 29.56449397874104 H 0.0 **** 0.06
10929 H 97.21418862577102 52.020980066638884 30.185549344784135 H 0.0 **** 0.06
10930 H 98.44689814204403 50.73583828820196 30.201401344289195 H 0.0 **** 0.06
10931 C 18.792759644058435 9.40974917446296 125.1385672475687 C 0.0 **** -0.24
10932 H 18.51609905204765 8.816172271200529 124.26842833355434 H 0.0 **** 0.06
10933 H 19.383004479563454 10.269539914480305 124.82031666625078 H 0.0 **** 0.06
10934 H 19.381068146009056 8.79913891592129 125.82336771282321 H 0.0 **** 0.06
10935 H 17.89039169465076 9.75517049556558 125.64432977673347 H 0.0 **** 0.06
10936 C 48.42640408076596 90.51148431078921 126.17341102599943 C 0.0 **** -0.24
10937 H 49.50126694653099 90.67091423754486 126.25607515821639 H 0.0 **** 0.06
10938 H 48.23785937630879 89.52620031468246 125.7458296065881 H 0.0 **** 0.06
10939 H 47.99498497943679 91.27696416500405 125.527833251125 H 0.0 **** 0.06
10940 H 47.97351383366464 90.57248850995212 127.16265383943278 H 0.0 **** 0.06
10941 C 25.453762193538694 3.326658486435747 0.41821804086964676 C 0.0 **** -0.24
10942 H 26.013038415737867 3.5934487597337466 -0.4791829808337127 H 0.0 **** 0.06
10943 H 26.150180493086268 3.0457628266470635 1.2093638843718963 H 0.0 **** 0.06
10944 H 24.793800340284918 2.4874017362112397 0.19889653356977988 H 0.0 **** 0.06
10945 H 24.859610389837968 4.1810501903993895 0.7425942524911875 H 0.0 **** 0.06
10946 C 118.49586016578561 7.809916684022085 8.620314315789233 C 0.0 **** -0.24
10947 H 118.42639509853532 7.987850382215214 7.547313543595415 H 0.0 **** 0.06
10948 H 118.83640206694568 8.71892165973486 9.117010083456442 H 0.0 **** 0.06
10949 H 119.20580665236923 7.004387138844152 8.809318646134187 H 0.0 **** 0.06
10950 H 117.51605707788815 7.5288219639872125 9.005514391179837 H 0.0 **** 0.06
10951 C 55.93950372579184 89.94295522598433 51.01225492338256 C 0.0 **** -0.24
10952 H 54.885452604798445 90.1992872870158 50.90347255227364 H 0.0 **** 0.06
10953 H 56.18123908410894 89.11260202167684 50.34779565715516 H 0.0 **** 0.06
10954 H 56.137463225884005 89.6525973619171 52.04460654986404 H 0.0 **** 0.06
10955 H 56.55116643804428 90.80632838996067 50.754001420824196 H 0.0 **** 0.06
10956 C 53.73080077233453 3.8086376937465793 6.8987891616838155 C 0.0 **** -0.24
10957 H 54.146094555123184 2.9087757606881652 6.446077340760866 H 0.0 **** 0.06
10958 H 52.680067412625036 3.643984042119193 7.1378478626921265 H 0.0 **** 0.06
10959 H 53.81921284058416 4.641378637037288 6.201304195526607 H 0.0 **** 0.06
10960 H 54.2792815693018 4.0413874745413345 7.812363958616906 H 0.0 **** 0.06
10961 C 79.46776452822084 24.019912868956993 97.97637853777469 C 0.0 **** -0.24
10962 H 79.11696543412626 23.15321397309856 97.4159023977057 H 0.0 **** 0.06
10963 H 78.84976878777144 24.884092380371527 97.73330140966911 H 0.0 **** 0.06
10964 H 80.50458144101611 24.22844324860597 97.71144784667199 H 0.0 **** 0.06
10965 H 79.40090659531663 23.812731679687033 99.04433754056859 H 0.0 **** 0.06
10966 C 43.92028577751648 14.05373145687372 18.426942408725324 C 0.0 **** -0.24
10967 H 44.774781506806335 14.609629618407524 18.04124337616247 H 0.0 **** 0.06
10968 H 43.14653916408656 14.000358314827821 17.661425639105346 H 0.0 **** 0.06
10969 H 43.526554858038764 14.557991157809312 19.30861383575973 H 0.0 **** 0.06
10970 H 44.23593913687 13.045342518439213 18.695351050645627 H 0.0 **** 0.06
10971 C 23.262006352154827 24.136028829365074 25.907452755980415 C 0.0 **** -0.24
10972 H 24.30034243355712 24.352756530183086 26.159450343487322 H 0.0 **** 0.06
10973 H 22.785484791376206 23.624541323982243 26.743524033744023 H 0.0 **** 0.06
10974 H 23.22789650915317 23.499528108764395 25.023589764440317 H 0.0 **** 0.06
10975 H 22.735567309205123 25.069143032824854 25.704227892623976 H 0.0 **** 0.06
10976 C 64.22945640378039 124.37934887881704 48.954982347372095 C 0.0 **** -0.24
10977 H 64.38590819821991 123.65672649409493 49.75517678092422 H 0.0 **** 0.06
10978 H 63.17854152426243 124.66814233722772 48.9276190446796 H 0.0 **** 0.06
10979 H 64.50814222850285 123.93056511965739 48.00097769354238 H 0.0 **** 0.06
10980 H 64.84394198482345 125.26097012885074 49.13462325816937 H 0.0 **** 0.06
10981 C 37.87093856575706 60.46827527222521 70.66590473614116 C 0.0 **** -0.24
10982 H 37.71226905299255 60.10435857772117 69.650522973793 H 0.0 **** 0.06
10983 H 37.431997279892414 59.76594684159542 71.37530367405456 H 0.0 **** 0.06
10984 H 37.399421178361195 61.44341961240721 70.78039596039386 H 0.0 **** 0.06
10985 H 38.94061851473373 60.55613414052465 70.85630720572834 H 0.0 **** 0.06
10986 C 51.719083350527825 19.27057849866425 108.8450142040426 C 0.0 **** -0.24
10987 H 51.90285825251489 20.25304481153941 109.2796579540045 H 0.0 **** 0.06
10988 H 52.547785236098164 18.605416883795215 109.08864857217883 H 0.0 **** 0.06
10989 H 51.63304465264136 19.361713434793913 107.7623909004076 H 0.0 **** 0.06
10990 H 50.793491820365446 18.862246010713022 109.25048720543 H 0.0 **** 0.06
10991 C 96.5225196205858 23.38097496383901 85.99729281924095 C 0.0 **** -0.24
10992 H 95.62166117297676 23.397151400527008 86.61063517387447 H 0.0 **** 0.06
10993 H 97.22608435708554 22.65395708751285 86.40323512106994 H 0.0 **** 0.06
10994 H 96.98038586627797 24.370193123034767 85.99913931290962 H 0.0 **** 0.06
10995 H 96.26213839446928 23.103893680696018 84.97562748050501 H 0.0 **** 0.06
10996 C 29.674503079808545 32.13744103143006 21.9693334007044 C 0.0 **** -0.24
10997 H 29.77363721637016 31.922064861922763 20.905519042949813 H 0.0 **** 0.06
10998 H 30.34510004771127 32.953770841135 22.238611781232862 H 0.0 **** 0.06
10999 H 29.93430020320747 31.248397072905163 22.54404617152693 H 0.0 **** 0.06
11000 H 28.646275105985893 32.42375831940319 22.187115478416537 H 0.0 **** 0.06
11001 C 1.4197208961108458 41.17332861999492 72.04317329507862 C 0.0 **** -0.24
11002 H 1.365514446459116 42.260176265565946 72.09500240279301 H 0.0 **** 0.06
11003 H 2.0869077365208284 40.88161470251154 71.2311257183161 H 0.0 **** 0.06
11004 H 0.42471308310200584 40.76861286241592 71.85942333146882 H 0.0 **** 0.06
11005 H 1.8024162242539319 40.7825951686207 72.98646761387998 H 0.0 **** 0.06
11006 C 2.4058527222366592 102.60924424374423 118.91357772565564 C 0.0 **** -0.24
11007 H 2.5594948789006935 101.86086046684943 119.69170325485334 H 0.0 **** 0.06
11008 H 1.4295599323592967 102.45767904654866 118.45231110758374 H 0.0 **** 0.06
11009 H 3.1849881072121207 102.51064347954286 118.15803726771739 H 0.0 **** 0.06
11010 H 2.449835499658775 103.60488222879741 119.35433384155095 H 0.0 **** 0.06
11011 C 48.56585129516861 120.63790490321671 111.81947760559564 C 0.0 **** -0.24
11012 H 48.50667979080467 121.65053832847855 111.41812382695662 H 0.0 **** 0.06
11013 H 48.10324513238517 120.6106069326039 112.80580300818457 H 0.0 **** 0.06
11014 H 49.611238951374474 120.34042019014038 111.89867947162423 H 0.0 **** 0.06
11015 H 48.04281711124169 119.9529479227364 111.15242391660877 H 0.0 **** 0.06
11016 C 115.79748009243539 128.00136574573443 80.94714113258999 C 0.0 **** -0.24
11017 H 114.98195850398437 127.70393383384098 80.28729318564051 H 0.0 **** 0.06
11018 H 115.98152179778563 127.21012406438166 81.67496584319618 H 0.0 **** 0.06
11019 H 115.52624033327518 128.9195358377295 81.46794736387359 H 0.0 **** 0.06
11020 H 116.69803782546921 128.16945835883553 80.35712751251918 H 0.0 **** 0.06
11021 C 116.25972564484837 90.49550584103932 34.79186806350123 C 0.0 **** -0.24
11022 H 115.76382035624545 90.82736027847784 35.70419479378833 H 0.0 **** 0.06
11023 H 115.56898734556157 90.57831349226916 33.95282875770533 H 0.0 **** 0.06
11024 H 116.57103538864939 89.45667705442466 34.906203201830465 H 0.0 **** 0.06
11025 H 117.13480277304635 91.11800072995064 34.60672333341168 H 0.0 **** 0.06
11026 C 68.18448173638765 84.87928914726518 82.20342530291163 C 0.0 **** -0.24
11027 H 67.44060757469006 85.24554447005016 81.49585994065359 H 0.0 **** 0.06
11028 H 69.18210917373544 85.03019873400757 81.79152453838742 H 0.0 **** 0.06
11029 H 68.0221765761933 83.81720198204306 82.38455869731058 H 0.0 **** 0.06
11030 H 68.0917669603753 85.42692852208938 83.14164254411577 H 0.0 **** 0.06
11031 C 64.7019034474165 109.62704477116469 31.14627776440065 C 0.0 **** -0.24
11032 H 65.02078328952814 108.59072896624943 31.033460731218923 H 0.0 **** 0.06
11033 H 64.10934157062127 109.72690267406253 32.05617355068986 H 0.0 **** 0.06
11034 H 64.10037898831695 109.9178244975314 30.285295231708943 H 0.0 **** 0.06
11035 H 65.57866534200934 110.27110323840691 31.2111601188096 H 0.0 **** 0.06
11036 C 90.1321800051519 38.2298455279369 63.9941555979177 C 0.0 **** -0.24
11037 H 89.22628129958187 37.81029449464842 64.4321772409428 H 0.0 **** 0.06
11038 H 89.97196796601983 38.40896676367824 62.93089873134838 H 0.0 **** 0.06
11039 H 90.9568990501688 37.52877767847005 64.12403962565159 H 0.0 **** 0.06
11040 H 90.37301175420112 39.16971396802562 64.48932704966495 H 0.0 **** 0.06
11041 C 31.190423050790372 49.042151114590894 69.02090531250262 C 0.0 **** -0.24
11042 H 30.475478960377075 48.23099343080085 69.16302743396265 H 0.0 **** 0.06
11043 H 31.686935094049403 48.923676263715834 68.05792662203918 H 0.0 **** 0.06
11044 H 31.933085861195735 49.015079372185625 69.81949885645146 H 0.0 **** 0.06
11045 H 30.665325624528066 49.997387146267585 69.04583173955098 H 0.0 **** 0.06
11046 C 80.47926685271827 129.34395915403502 24.596181626262826 C 0.0 **** -0.24
11047 H 80.24287563921496 130.37866636136857 24.845423853742133 H 0.0 **** 0.06
11048 H 79.64515122649433 128.70215477595605 24.877497568173034 H 0.0 **** 0.06
11049 H 81.37427418936576 129.03595649339923 25.137423475777084 H 0.0 **** 0.06
11050 H 80.65800526005273 129.2608918704418 23.523993258287348 H 0.0 **** 0.06
11051 C 32.97077299990636 18.565837223314702 114.52317483357773 C 0.0 **** -0.24
11052 H 32.418059960033304 17.631800697014455 114.42176212123384 H 0.0 **** 0.06
11053 H 32.27441183181452 19.40498695516891 114.48716860359742 H 0.0 **** 0.06
11054 H 33.68752585765782 18.653072654397135 113.70639713388893 H 0.0 **** 0.06
11055 H 33.50074550678943 18.57330005113954 115.47446490155097 H 0.0 **** 0.06
11056 C 102.82823900226273 108.05925730653578 52.751004830055166 C 0.0 **** -0.24
11057 H 101.97538573978647 108.73150091318053 52.66037215888886 H 0.0 **** 0.06
11058 H 103.61603246594684 108.37510355569398 52.06646840040666 H 0.0 **** 0.06
11059 H 102.51866212225151 107.04382952658798 52.505364845171584 H 0.0 **** 0.06
11060 H 103.20419238774006 108.08631891994202 53.7746758199105 H 0.0 **** 0.06
11061 C 86.53574996338102 26.754260382268257 11.655578255886468 C 0.0 **** -0.24
11062 H 87.153958469131 26.337911390293755 10.860994615105817 H 0.0 **** 0.06
11063 H 87.16924479576886 27.28217478807855 12.37038333893318 H 0.0 **** 0.06
11064 H 86.00687198890103 25.948818690568032 12.165145954343917 H 0.0 **** 0.06
11065 H 85.81349649549122 27.449249797957634 11.227894868023057 H 0.0 **** 0.06
11066 C 63.460364412613956 42.67323670455738 120.11937310202268 C 0.0 **** -0.24
11067 H 62.66360660187408 42.003853323276076 119.79360723379652 H 0.0 **** 0.06
11068 H 64.24945603803337 42.6908297696055 119.36757767488442 H 0.0 **** 0.06
11069 H 63.86786227918776 42.31810593059316 121.06568968147849 H 0.0 **** 0.06
11070 H 63.05958385673915 43.6781689539651 120.25023777975943 H 0.0 **** 0.06
11071 C 32.79071253182195 92.6889171860241 62.32695874275413 C 0.0 **** -0.24
11072 H 32.93352288048288 93.2389989448707 61.397029867534116 H 0.0 **** 0.06
11073 H 31.7255108402332 92.60432095521904 62.53927981063504 H 0.0 **** 0.06
11074 H 33.283379217346635 93.2211741158402 63.14153694561844 H 0.0 **** 0.06
11075 H 33.22260958952785 91.69298538539837 62.229936918569365 H 0.0 **** 0.06
11076 C 125.6224166012469 20.94124919772871 102.13734322456989 C 0.0 **** -0.24
11077 H 126.0674570106693 20.394832070756195 102.96850854597803 H 0.0 **** 0.06
11078 H 126.35996097515155 21.62573013659508 101.71690574420163 H 0.0 **** 0.06
11079 H 124.76309304272831 21.508601707469516 102.49472064113631 H 0.0 **** 0.06
11080 H 125.30080211154367 20.237224395863002 101.37040083923488 H 0.0 **** 0.06
11081 C 15.22567305779576 93.76079308516748 127.80524489215689 C 0.0 **** -0.24
11082 H 16.18008655747768 93.23628082417079 127.77118351163936 H 0.0 **** 0.06
11083 H 14.740935757380967 93.57370682023682 128.76414427407065 H 0.0 **** 0.06
11084 H 14.585424995604086 93.40366645647887 126.9986443359346 H 0.0 **** 0.06
11085 H 15.395168648169886 94.8314593955485 127.68673572757143 H 0.0 **** 0.06
11086 C 105.01824214073974 47.41118234002573 46.506640886351974 C 0.0 **** -0.24
11087 H 104.31584627115507 46.954475614029505 45.80838408770535 H 0.0 **** 0.06
11088 H 106.03133063067514 47.09339989859481 46.26110988198316 H 0.0 **** 0.06
11089 H 104.77487541501927 47.09937531235883 47.52214591417069 H 0.0 **** 0.06
11090 H 104.94940810369616 48.49710399143487 46.4333157115384 H 0.0 **** 0.06
11091 C 105.37008984529028 41.13633607369624 36.53089053512451 C 0.0 **** -0.24
11092 H 104.70455672482285 40.45987172853171 37.06585693407202 H 0.0 **** 0.06
11093 H 105.9893309621516 41.67755107720038 37.246284994271626 H 0.0 **** 0.06
11094 H 104.77847306650253 41.845066917282026 35.95165687559121 H 0.0 **** 0.06
11095 H 106.00844350058797 40.56199412946111 35.85951477453801 H 0.0 **** 0.06
11096 C 7.250649911345249 4.366180222046182 7.292088609712412 C 0.0 **** -0.24
11097 H 7.222174081138178 3.5403691808067492 8.003739355176215 H 0.0 **** 0.06
11098 H 6.991770492421267 3.997640485598879 6.298757114382418 H 0.0 **** 0.06
11099 H 8.25239574954685 4.793191157144406 7.271734179788464 H 0.0 **** 0.06
11100 H 6.534922879059877 5.131065332428136 7.59368944295726 H 0.0 **** 0.06
11101 C 85.31964142016135 128.34770479341444 63.5350838367081 C 0.0 **** -0.24
11102 H 85.01803058768029 128.75275261748078 64.50102360394075 H 0.0 **** 0.06
11103 H 84.73304033797915 127.45474570895922 63.318188154617815 H 0.0 **** 0.06
11104 H 86.3779432401165 128.09004893531394 63.56461584076551 H 0.0 **** 0.06
11105 H 85.14785337723319 129.09332523542233 62.75876914812835 H 0.0 **** 0.06
11106 C 0.6717545569385948 108.55385772789081 123.3508527069319 C 0.0 **** -0.24
11107 H 0.6594613265417024 108.41773431367318 122.26923318554765 H 0.0 **** 0.06
11108 H -0.34815842424535504 108.67667261405677 123.71395659142877 H 0.0 **** 0.06
11109 H 1.2553036760484702 109.44067616947153 123.59750008808328 H 0.0 **** 0.06
11110 H 1.1239153896886478 107.67971936366445 123.82064014434036 H 0.0 **** 0.06
11111 C 77.80716502363944 127.4467582296765 39.26616528341333 C 0.0 **** -0.24
11112 H 78.82509890531526 127.68196686521583 38.952636854672534 H 0.0 **** 0.06
11113 H 77.10501899438228 128.0819063288469 38.725245357261684 H 0.0 **** 0.06
11114 H 77.7075956074537 127.62213629204592 40.33727868918655 H 0.0 **** 0.06
11115 H 77.59356427833097 126.39979750567466 39.04869692627372 H 0.0 **** 0.06
11116 C 41.03381464107663 108.71042443277811 75.84593147229388 C 0.0 **** -0.24
11117 H 41.1338129203627 108.28784391377488 76.84565068973163 H 0.0 **** 0.06
11118 H 40.738171810446424 107.92659810816608 75.1487026226421 H 0.0 **** 0.06
11119 H 41.98787045646987 109.13431199518021 75.53414749288427 H 0.0 **** 0.06
11120 H 40.27470679111391 109.49201039957609 75.85738008460476 H 0.0 **** 0.06
11121 C 122.17522913766133 121.23023461277882 93.73002414052702 C 0.0 **** -0.24
11122 H 122.52141747378215 122.25727527657912 93.84849613556618 H 0.0 **** 0.06
11123 H 122.75011608087391 120.57486245676898 94.3834824394918 H 0.0 **** 0.06
11124 H 122.3092962253848 120.91957237182086 92.69373003468752 H 0.0 **** 0.06
11125 H 121.11878084225789 121.17197211977884 93.99351227216835 H 0.0 **** 0.06
11126 C 86.24821224900302 107.31931717244072 28.72513653820272 C 0.0 **** -0.24
11127 H 85.37457176437212 107.6798460206737 29.267545687825645 H 0.0 **** 0.06
11128 H 87.14763591721697 107.77098801700377 29.14390974197184 H 0.0 **** 0.06
11129 H 86.1604224727092 107.59068290123419 27.672562013145836 H 0.0 **** 0.06
11130 H 86.31035092432049 106.23466572555397 28.81563248716259 H 0.0 **** 0.06
11131 C 113.15723941985061 33.87686373366364 126.95932157544473 C 0.0 **** -0.24
11132 H 113.45517462749598 34.6363099479845 127.68289574865466 H 0.0 **** 0.06
11133 H 112.1041061499534 33.633302092106135 127.10358374986251 H 0.0 **** 0.06
11134 H 113.76099022824201 32.98132065957685 127.10443878243332 H 0.0 **** 0.06
11135 H 113.30734910454743 34.25799648581517 125.95011481950381 H 0.0 **** 0.06
11136 C 85.03255981942155 113.25782286022859 73.23719948895855 C 0.0 **** -0.24
11137 H 84.91771493277707 112.2142040514165 72.94462831169537 H 0.0 **** 0.06
11138 H 84.13828318002791 113.81486183818133 72.95679911552905 H 0.0 **** 0.06
11139 H 85.899049605901 113.68293725776722 72.72999567723363 H 0.0 **** 0.06
11140 H 85.1766035602888 113.31909309513115 74.31597186396408 H 0.0 **** 0.06
11141 C 32.82928696184254 106.3702147548018 26.82309614748499 C 0.0 **** -0.24
11142 H 33.77102065303637 105.95883104717105 26.460295171173982 H 0.0 **** 0.06
11143 H 32.31602436088707 105.62238942778067 27.428065803005296 H 0.0 **** 0.06
11144 H 32.20297572521966 106.64551827109932 25.974700801352952 H 0.0 **** 0.06
11145 H 33.0284849565337 107.25415335622247 27.42892877711978 H 0.0 **** 0.06
11146 C 80.4227860777265 28.27527333252928 35.58187142948464 C 0.0 **** -0.24
11147 H 80.19299295879526 27.281790868342057 35.19766035741972 H 0.0 **** 0.06
11148 H 80.8304983786247 28.189078677723444 36.58967036717421 H 0.0 **** 0.06
11149 H 79.5120252069334 28.87439952642373 35.60821468752103 H 0.0 **** 0.06
11150 H 81.15553178562257 28.75547052240006 34.932870743891876 H 0.0 **** 0.06
11151 C 92.51920108477688 104.17665964715249 109.16429346274816 C 0.0 **** -0.24
11152 H 92.96349555106383 105.15978141975444 109.00694827019359 H 0.0 **** 0.06
11153 H 91.45521035672624 104.21761272574597 108.92997300527512 H 0.0 **** 0.06
11154 H 92.65211537752825 103.87991982818296 110.20450244216373 H 0.0 **** 0.06
11155 H 93.00646026148982 103.45025916174497 108.51312347338089 H 0.0 **** 0.06
11156 C 40.453746727690714 62.1261440914551 96.26143276366369 C 0.0 **** -0.24
11157 H 39.734117590598856 61.31103038914286 96.35030988661597 H 0.0 **** 0.06
11158 H 40.148615142270074 62.79112620734034 95.45283766819907 H 0.0 **** 0.06
11159 H 41.43957509189515 61.717643114970144 96.04336681854707 H 0.0 **** 0.06
11160 H 40.48829705480313 62.68320086691159 97.19713914641315 H 0.0 **** 0.06
11161 C 29.727985649094308 98.38834668320432 90.5001720686804 C 0.0 **** -0.24
11162 H 29.210389499615104 98.8641522290966 89.6678808234926 H 0.0 **** 0.06
11163 H 30.648838621153345 98.9316124049885 90.71333785845883 H 0.0 **** 0.06
11164 H 29.967071087879106 97.35749714466932 90.23797962605462 H 0.0 **** 0.06
11165 H 29.086441106662335 98.40018986235043 91.38089039406157 H 0.0 **** 0.06
11166 C 122.50022236140279 57.23727745883531 45.547860454553216 C 0.0 **** -0.24
11167 H 123.23188726641109 56.55694718527474 45.98233668055963 H 0.0 **** 0.06
11168 H 122.80939323078266 58.266925276208724 45.729663246433006 H 0.0 **** 0.06
11169 H 121.52645570050345 57.06413241507528 46.005777195478174 H 0.0 **** 0.06
11170 H 122.43363457885351 57.0619641890375 44.4738381888119 H 0.0 **** 0.06
11171 C 41.848968803123405 108.87654409477318 130.49365411719342 C 0.0 **** -0.24
11172 H 42.65094796197319 109.57644356472153 130.72751007478993 H 0.0 **** 0.06
11173 H 40.91594318660126 109.23483549848208 130.93120990237983 H 0.0 **** 0.06
11174 H 42.0912450541216 107.89679292400177 130.90585110212717 H 0.0 **** 0.06
11175 H 41.73753383465222 108.79886153088796 129.4123659453127 H 0.0 **** 0.06
11176 C 110.52195211473918 94.30654885739813 57.43828299760105 C 0.0 **** -0.24
11177 H 111.14682884750482 95.19408501514198 57.34016015947384 H 0.0 **** 0.06
11178 H 109.81621612623906 94.26557115259317 56.60858786455691 H 0.0 **** 0.06
11179 H 109.97418038033808 94.35131087462975 58.37964582091257 H 0.0 **** 0.06
11180 H 111.15162263301079 93.41691694692804 57.426176367658115 H 0.0 **** 0.06
11181 C 76.76575718505808 9.034090421349504 112.26898358405806 C 0.0 **** -0.24
11182 H 76.60282547969695 9.591533235357844 111.34680235672235 H 0.0 **** 0.06
11183 H 77.10050202357962 8.024117981945011 112.02799157099346 H 0.0 **** 0.06
11184 H 75.83473654284307 8.98426869678201 112.8320455073674 H 0.0 **** 0.06
11185 H 77.52675871752871 9.535954497110566 112.867499790015 H 0.0 **** 0.06
11186 C 57.10216880383771 57.660544456832525 28.802494038057915 C 0.0 **** -0.24
11187 H 56.802630775184355 57.85313617402613 29.833035114475848 H 0.0 **** 0.06
11188 H 58.14382845604804 57.339215700371625 28.781410746332142 H 0.0 **** 0.06
11189 H 56.98969631060115 58.5708845098205 28.215049313872697 H 0.0 **** 0.06
11190 H 56.471220925553936 56.876352899246314 28.382850255431208 H 0.0 **** 0.06
11191 C 71.11813096005369 36.511574352043624 99.3653502426609 C 0.0 **** -0.24
11192 H 70.90857379170542 35.546766595361774 99.82762751440234 H 0.0 **** 0.06
11193 H 71.79758394132806 36.37105188345606 98.5246793479125 H 0.0 **** 0.06
11194 H 71.5782265390874 37.173068719902275 100.09900322324359 H 0.0 **** 0.06
11195 H 70.18640943398981 36.954137673959394 99.01071343559784 H 0.0 **** 0.06
11196 C 38.168508320274896 59.801255548283365 129.70526370177924 C 0.0 **** -0.24
11197 H 38.060067822281184 59.34214037026115 128.7225743367295 H 0.0 **** 0.06
11198 H 38.30191536428953 60.87734107410958 129.59167671956007 H 0.0 **** 0.06
11199 H 39.03708732332191 59.37828763142974 130.21001426051268 H 0.0 **** 0.06
11200 H 37.273877110968044 59.605806942798125 130.29764397545608 H 0.0 **** 0.06
11201 C 58.63204978532447 118.97813280861203 22.981544626865798 C 0.0 **** -0.24
11202 H 58.16925067146198 119.10029754414609 23.96001135488666 H 0.0 **** 0.06
11203 H 59.662991354088604 119.33057288262006 23.019293358912478 H 0.0 **** 0.06
11204 H 58.07673380293993 119.55667733525098 22.242046172992218 H 0.0 **** 0.06
11205 H 58.61736759228792 117.92472530609513 22.702708635280374 H 0.0 **** 0.06
11206 C 77.05050108024949 73.41017146063145 60.147167519058 C 0.0 **** -0.24
11207 H 76.14716566505578 73.7150028949466 59.61879795666363 H 0.0 **** 0.06
11208 H 77.22017554309446 72.34424332770286 59.99302700507229 H 0.0 **** 0.06
11209 H 76.93219347267629 73.60882410201498 61.21220831132524 H 0.0 **** 0.06
11210 H 77.90270194260617 73.97289688787328 59.76556788987128 H 0.0 **** 0.06
11211 C 81.73328637054081 35.30429907405858 94.5800308883565 C 0.0 **** -0.24
11212 H 81.23618836181436 34.998884404021794 93.65937953630245 H 0.0 **** 0.06
11213 H 82.50786118833088 34.57903410716972 94.83231868880361 H 0.0 **** 0.06
11214 H 81.00317702955724 35.35189227584419 95.38809939908126 H 0.0 **** 0.06
11215 H 82.18569992956148 36.28582242893907 94.4396124877068 H 0.0 **** 0.06
11216 C 15.427116942192697 44.59472496256162 123.0070435332878 C 0.0 **** -0.24
11217 H 14.875559996904258 45.38450764918597 122.49816177078986 H 0.0 **** 0.06
11218 H 16.334705791732404 44.36762987904766 122.44780050067254 H 0.0 **** 0.06
11219 H 14.805876207790277 43.70096754853964 123.0711461569204 H 0.0 **** 0.06
11220 H 15.692325772343708 44.92579477347341 124.01106570476838 H 0.0 **** 0.06
11221 C 69.82919847245111 119.06427741187252 1.1709948002221324 C 0.0 **** -0.24
11222 H 70.22706947666401 120.07282662554013 1.2844964804871495 H 0.0 **** 0.06
11223 H 68.74318880968141 119.09092074386376 1.2628133187191963 H 0.0 **** 0.06
11224 H 70.24476450000762 118.42137999011514 1.947749151235172 H 0.0 **** 0.06
11225 H 70.10218757490915 118.67445409771173 0.19109219049488502 H 0.0 **** 0.06
11226 C 37.56674554892082 47.837787243873095 2.709853237530041 C 0.0 **** -0.24
11227 H 37.85259375058021 48.327930799719695 1.7790301686653152 H 0.0 **** 0.06
11228 H 36.957088248153795 48.51776414007762 3.305090904536712 H 0.0 **** 0.06
11229 H 38.46279517026596 47.568792658732264 3.2687579099804793 H 0.0 **** 0.06
11230 H 36.993536708486474 46.93820035732517 2.4852323605996958 H 0.0 **** 0.06
11231 C 7.405232835224581 114.94407143166511 90.63281961955293 C 0.0 **** -0.24
11232 H 6.429315553513334 115.321795174982 90.93766662726446 H 0.0 **** 0.06
11233 H 7.4690173476584505 114.93995073262043 89.54479112100232 H 0.0 **** 0.06
11234 H 7.534557009813824 113.92943414456427 91.0097372671911 H 0.0 **** 0.06
11235 H 8.185437534622992 115.58546347088738 91.04174663649005 H 0.0 **** 0.06
11236 C 103.98568577550266 69.5002297407708 68.66107057140496 C 0.0 **** -0.24
11237 H 103.87090042577212 68.43034042864406 68.8383351132095 H 0.0 **** 0.06
11238 H 104.68838403842034 69.91490396945261 69.38481844603129 H 0.0 **** 0.06
11239 H 103.0190551413874 69.99211551179098 68.77057439389054 H 0.0 **** 0.06
11240 H 104.36417326504733 69.66234772759753 67.65241979852968 H 0.0 **** 0.06
11241 C 79.87138942522546 42.67201071856017 121.59679239200784 C 0.0 **** -0.24
11242 H 80.7433871430369 42.02046803838846 121.54668703990308 H 0.0 **** 0.06
11243 H 80.00245692201617 43.39379870430224 122.40395282957135 H 0.0 **** 0.06
11244 H 78.98071405423914 42.07193973468614 121.78697322393543 H 0.0 **** 0.06
11245 H 79.75782351791608 43.20070943015622 120.65108849941745 H 0.0 **** 0.06
11246 C 57.99511294574465 68.01644048516573 113.19039448854983 C 0.0 **** -0.24
11247 H 56.95344306334074 67.8673434499384 112.90703187325977 H 0.0 **** 0.06
11248 H 58.642632350818204 67.69459151423017 112.3747448502798 H 0.0 **** 0.06
11249 H 58.21646249609893 67.43177510288953 114.08383239382158 H 0.0 **** 0.06
11250 H 58.16737962291178 69.07284493668018 113.39701082532065 H 0.0 **** 0.06
11251 C 20.094763885148666 74.28592796741421 89.07971812045606 C 0.0 **** -0.24
11252 H 19.663846654793815 75.13667267546212 88.54939048824468 H 0.0 **** 0.06
11253 H 19.574327060122016 74.14924852968738 90.0280639205088 H 0.0 **** 0.06
11254 H 21.152272366275213 74.47318886423938 89.26699240768802 H 0.0 **** 0.06
11255 H 19.986673569141544 73.38730984141866 88.47271697427274 H 0.0 **** 0.06
11256 C 97.46518911806336 84.47904417500139 122.50697973479282 C 0.0 **** -0.24
11257 H 96.6769380937059 84.45416813097955 123.25935860927552 H 0.0 **** 0.06
11258 H 98.21374585894324 83.72259057842987 122.74138152244481 H 0.0 **** 0.06
11259 H 97.93162324050772 85.46411069087408 122.50254926200742 H 0.0 **** 0.06
11260 H 97.03661509288136 84.27476932345618 121.52521824423141 H 0.0 **** 0.06
11261 C 2.6363739394955417 5.448551147978293 19.294008890927387 C 0.0 **** -0.24
11262 H 3.3987755597866816 5.8489761463508785 19.96346251343968 H 0.0 **** 0.06
11263 H 2.835169400440293 4.393210230070167 19.107377219027313 H 0.0 **** 0.06
11264 H 2.658199235561785 5.995316736040593 18.35181015101017 H 0.0 **** 0.06
11265 H 1.6550048255498808 5.559321730374904 19.75548372424103 H 0.0 **** 0.06
11266 C 6.990865588995746 128.98431441708215 50.87626856320249 C 0.0 **** -0.24
11267 H 7.850911519273495 128.88933710453747 50.212958070367804 H 0.0 **** 0.06
11268 H 6.70791954904621 127.99784270581289 51.245909831270325 H 0.0 **** 0.06
11269 H 6.156342802398342 129.42054392339733 50.32827226229507 H 0.0 **** 0.06
11270 H 7.249434853035041 129.62778119452696 51.71666362481463 H 0.0 **** 0.06
11271 C 76.3746413776018 11.110902815431107 76.33710438324178 C 0.0 **** -0.24
11272 H 76.4536015119175 12.143219003805477 75.99547434481792 H 0.0 **** 0.06
11273 H 77.26357706909678 10.8497332649868 76.91173496084443 H 0.0 **** 0.06
11274 H 76.29201902309418 10.44902794268204 75.47487953895683 H 0.0 **** 0.06
11275 H 75.49076421747057 11.003148035943617 76.96500603751966 H 0.0 **** 0.06
11276 C 67.49109810630168 67.56966758180491 113.99956367190478 C 0.0 **** -0.24
11277 H 66.93387647977968 67.79429036136906 113.09063018696688 H 0.0 **** 0.06
11278 H 68.17638569021884 66.74320687099609 113.81059514229369 H 0.0 **** 0.06
11279 H 66.79570175141001 67.29039478760916 114.7920957997961 H 0.0 **** 0.06
11280 H 68.05709037605325 68.4491344137378 114.30564581414873 H 0.0 **** 0.06
11281 C 51.01772445648466 85.94428546218337 94.67554578520962 C 0.0 **** -0.24
11282 H 50.06659514013589 86.44597496970869 94.49910572198159 H 0.0 **** 0.06
11283 H 51.438108121560205 85.61774561470352 93.7248167368766 H 0.0 **** 0.06
11284 H 50.8577744685509 85.07939067532233 95.31922386473045 H 0.0 **** 0.06
11285 H 51.7081909130999 86.63495598114217 95.16079504036381 H 0.0 **** 0.06
11286 C 68.38942078982186 15.534492888831721 53.00998987090395 C 0.0 **** -0.24
11287 H 68.06932272701566 16.062815895225697 52.11183926565741 H 0.0 **** 0.06
11288 H 68.5946376683497 14.492427314294844 52.76516170145001 H 0.0 **** 0.06
11289 H 67.60018285651735 15.583918591726615 53.75976651812587 H 0.0 **** 0.06
11290 H 69.29342716573875 16.00122393463522 53.40279280261831 H 0.0 **** 0.06
11291 C 49.25250467636937 7.2947018176160725 73.58095341674064 C 0.0 **** -0.24
11292 H 48.19252333000409 7.4147038821785145 73.35838997511468 H 0.0 **** 0.06
11293 H 49.828246297372914 7.373128735937456 72.6589787698093 H 0.0 **** 0.06
11294 H 49.41995748185528 6.317581916629422 74.0337720476193 H 0.0 **** 0.06
11295 H 49.56768720514225 8.075194146089729 74.2741497960345 H 0.0 **** 0.06
11296 C 72.33717353525017 104.09178628573488 103.30826468342589 C 0.0 **** -0.24
11297 H 72.72698165800634 104.9530571054712 103.85087197733148 H 0.0 **** 0.06
11298 H 72.26783782487044 104.33165849868686 102.24760908073793 H 0.0 **** 0.06
11299 H 71.34803764297558 103.8392385075457 103.68937652739729 H 0.0 **** 0.06
11300 H 73.00745396410483 103.24299792168341 103.44636235819571 H 0.0 **** 0.06
11301 C 101.07078341480232 79.67256305350509 70.81673643842396 C 0.0 **** -0.24
11302 H 100.65257381809431 79.81898125488301 71.8130109778084 H 0.0 **** 0.06
11303 H 100.30666666974179 79.88158650291042 70.06851506216404 H 0.0 **** 0.06
11304 H 101.4093780370458 78.64131164894931 70.71347109826274 H 0.0 **** 0.06
11305 H 101.91432027285342 80.34835331335897 70.67494230090398 H 0.0 **** 0.06
11306 C 87.1347655254273 80.99771389507794 3.8890556226427577 C 0.0 **** -0.24
11307 H 86.37401372618106 80.28089301508058 3.5777807088362863 H 0.0 **** 0.06
11308 H 86.9063420386019 81.97617079919098 3.464917269721184 H 0.0 **** 0.06
11309 H 88.11091865505327 80.66633186642892 3.5365454470172324 H 0.0 **** 0.06
11310 H 87.14437853041758 81.06689236091914 4.976741878201068 H 0.0 **** 0.06
11311 C 0.9112480654818 108.12716280220364 49.412767475191544 C 0.0 **** -0.24
11312 H 0.31178068189882424 108.93259897285978 49.83673903793097 H 0.0 **** 0.06
11313 H 1.5499261978389427 108.52691097111224 48.62512027369925 H 0.0 **** 0.06
11314 H 0.25340409077665527 107.36445536944494 48.99685509149225 H 0.0 **** 0.06
11315 H 1.5309252691091615 107.6867483416096 50.19426780769622 H 0.0 **** 0.06
11316 C 29.386044902187223 43.63747007754543 90.2431449355704 C 0.0 **** -0.24
11317 H 29.203433154579102 42.62840684325637 89.87223272754298 H 0.0 **** 0.06
11318 H 30.4524604244655 43.855273743136046 90.19251965839425 H 0.0 **** 0.06
11319 H 29.048323297028958 43.710669044605226 91.27773934558188 H 0.0 **** 0.06
11320 H 28.838279426092868 44.353892232625576 89.63078249439833 H 0.0 **** 0.06
11321 C 3.937150284469624 100.69122134442057 38.287254758304925 C 0.0 **** -0.24
11322 H 4.558646769678376 101.28532380569544 38.956726800442084 H 0.0 **** 0.06
11323 H 4.387942599757594 100.67287371305315 37.29423854086514 H 0.0 **** 0.06
11324 H 2.9425163606181854 101.13383879416375 38.22582455822533 H 0.0 **** 0.06
11325 H 3.8592896790350437 99.67377462717849 38.66997051783039 H 0.0 **** 0.06
11326 C 33.790736609575504 14.051064587973315 51.26484787670577 C 0.0 **** -0.24
11327 H 34.102241348891624 13.971416302398552 50.22360468337797 H 0.0 **** 0.06
11328 H 34.4706204799638 13.475344748918815 51.89307798919569 H 0.0 **** 0.06
11329 H 32.77858640156083 13.659525166690571 51.37071739827638 H 0.0 **** 0.06
11330 H 33.809671825852206 15.097257255629358 51.57052391648682 H 0.0 **** 0.06
11331 C 57.87084583580217 62.65849715452943 95.13662458788995 C 0.0 **** -0.24
11332 H 58.61525799907348 61.87059557049682 95.25024712302876 H 0.0 **** 0.06
11333 H 57.42196876398724 62.87735298122779 96.10580929939654 H 0.0 **** 0.06
11334 H 57.097618371618054 62.32923538200754 94.44358392577472 H 0.0 **** 0.06
11335 H 58.34988052366768 63.556747571406206 94.74641636994052 H 0.0 **** 0.06
11336 C 118.11386484121473 27.81519970964966 12.78243918593327 C 0.0 **** -0.24
11337 H 118.48775763230819 26.862703409176817 13.155678184556933 H 0.0 **** 0.06
11338 H 117.23454366266137 28.1095159365491 13.355739033700246 H 0.0 **** 0.06
11339 H 117.84424259207415 27.713132011732554 11.730993738857109 H 0.0 **** 0.06
11340 H 118.88799824909754 28.575825214462355 12.887219038972773 H 0.0 **** 0.06
11341 C 0.18731437464668943 0.926627721665966 105.57541542362648 C 0.0 **** -0.24
11342 H -0.7858540820109283 1.1397095094001486 105.13229939358709 H 0.0 **** 0.06
11343 H 0.06626161367881878 0.7289931656439705 106.6406230543412 H 0.0 **** 0.06
11344 H 0.8440225443202962 1.78532565662573 105.43616133432513 H 0.0 **** 0.06
11345 H 0.623667970596955 0.05379907460289246 105.08976311872209 H 0.0 **** 0.06
11346 C 90.1060748596946 83.41248584533821 4.764333876849559 C 0.0 **** -0.24
11347 H 90.23154466704754 82.36213797979752 5.029639792410357 H 0.0 **** 0.06
11348 H 89.34308646429285 83.85870197037849 5.403739428606222 H 0.0 **** 0.06
11349 H 89.79856840259687 83.48981072078408 3.722022480102183 H 0.0 **** 0.06
11350 H 91.05079035539937 83.93727250644844 4.904904274677989 H 0.0 **** 0.06
11351 C 97.931438381646 118.38026908825941 130.58757446078863 C 0.0 **** -0.24
11352 H 97.82081011631143 117.35583744812536 130.23194449142 H 0.0 **** 0.06
11353 H 98.5305123831602 118.9490771052081 129.8772089271277 H 0.0 **** 0.06
11354 H 98.42586525609 118.375020127014 131.5586841108207 H 0.0 **** 0.06
11355 H 96.94687808268117 118.83896931367686 130.68311835023852 H 0.0 **** 0.06
11356 C 33.556633372695 28.031421623532687 113.62130811398637 C 0.0 **** -0.24
11357 H 34.07381550081291 27.286879383219357 114.22766695667715 H 0.0 **** 0.06
11358 H 34.132991245991036 28.95718775312347 113.6140135286328 H 0.0 **** 0.06
11359 H 32.56931823150391 28.220670824129705 114.042970346884 H 0.0 **** 0.06
11360 H 33.4512765050264 27.659253618571697 112.60212246360996 H 0.0 **** 0.06
11361 C 40.46244963245471 37.270414558201196 18.93709620369043 C 0.0 **** -0.24
11362 H 41.26051312143102 37.932583543838945 18.601058434362642 H 0.0 **** 0.06
11363 H 39.50430151719752 37.64710603266997 18.57900097043256 H 0.0 **** 0.06
11364 H 40.45490229906903 37.234554725906975 20.02674642838423 H 0.0 **** 0.06
11365 H 40.63125453824898 36.26931738049086 18.541615789675177 H 0.0 **** 0.06
11366 C 89.38764839229681 27.51350241808749 122.1104548896416 C 0.0 **** -0.24
11367 H 88.57903362842589 27.85127382412484 121.46292414712474 H 0.0 **** 0.06
11368 H 88.98699411854152 26.84903983278833 122.87576010605771 H 0.0 **** 0.06
11369 H 89.85593831311073 28.37582767803341 122.58707137644322 H 0.0 **** 0.06
11370 H 90.12985733889855 26.979400760320708 121.51713139249425 H 0.0 **** 0.06
11371 C 102.6478440286495 55.23209235484225 94.06857537348809 C 0.0 **** -0.24
11372 H 102.31564334302658 55.5130557876696 93.06862598239671 H 0.0 **** 0.06
11373 H 102.55332929963936 54.15303447854947 94.19290787892304 H 0.0 **** 0.06
11374 H 102.03310698964208 55.73999524464915 94.8113953191327 H 0.0 **** 0.06
11375 H 103.69049153551566 55.52193644249789 94.19951452047846 H 0.0 **** 0.06
11376 C 123.36271510143493 64.5709638169705 118.49995703905223 C 0.0 **** -0.24
11377 H 123.47361926256173 64.14606136873361 117.50319500646387 H 0.0 **** 0.06
11378 H 123.44174811549738 63.777782824684294 119.24369098967821 H 0.0 **** 0.06
11379 H 122.38874793001892 65.05304858569696 118.58322579651016 H 0.0 **** 0.06
11380 H 124.14866549660148 65.30799581254894 118.67021092358213 H 0.0 **** 0.06
11381 C 25.11784493524388 108.29248681679218 93.52598630109829 C 0.0 **** -0.24
11382 H 25.968168397088647 108.22025999611692 92.84894813019821 H 0.0 **** 0.06
11383 H 25.22730736356695 109.17697163608617 94.15352120091075 H 0.0 **** 0.06
11384 H 25.07855048944029 107.4033429024412 94.1554547512076 H 0.0 **** 0.06
11385 H 24.19718882384285 108.36818578418924 92.94727180439578 H 0.0 **** 0.06
11386 C 103.24096343813872 19.399490718548172 105.03384835820557 C 0.0 **** -0.24
11387 H 103.3897514841459 20.471219531815684 104.9004356066508 H 0.0 **** 0.06
11388 H 104.17023491174504 18.94327939148907 105.37427925151862 H 0.0 **** 0.06
11389 H 102.94263282729545 18.953794644454625 104.08478442953478 H 0.0 **** 0.06
11390 H 102.45917425916195 19.23160703690774 105.77592472088564 H 0.0 **** 0.06
11391 C 111.8685800874716 7.459403559550054 95.50747355102176 C 0.0 **** -0.24
11392 H 111.98747522344522 8.435942181429567 95.03943865430637 H 0.0 **** 0.06
11393 H 112.83713801394 7.105167176892991 95.86100378193309 H 0.0 **** 0.06
11394 H 111.46733404211955 6.7548370577204935 94.77821695133788 H 0.0 **** 0.06
11395 H 111.18241158383898 7.541221896007528 96.34989325828116 H 0.0 **** 0.06
11396 C 22.33076757853803 53.53165813939029 62.52042426588079 C 0.0 **** -0.24
11397 H 22.179727687463554 53.08157827435423 61.538884365838 H 0.0 **** 0.06
11398 H 21.932175851062567 52.868435949751756 63.2886582650556 H 0.0 **** 0.06
11399 H 21.81335265994369 54.49015732840007 62.56375541295607 H 0.0 **** 0.06
11400 H 23.396489557377635 53.685728720465136 62.68847297702804 H 0.0 **** 0.06
11401 C 128.0753686479595 0.5980579565445083 111.06797585355454 C 0.0 **** -0.24
11402 H 127.5245128559221 0.0998770922696437 110.2703730856428 H 0.0 **** 0.06
11403 H 128.7545861749307 1.3331314387035533 110.63608003025416 H 0.0 **** 0.06
11404 H 128.64695472753166 -0.13971444160617885 111.62967739681253 H 0.0 **** 0.06
11405 H 127.37345264134197 1.0988714490886693 111.73471360669811 H 0.0 **** 0.06
11406 C 43.73489118286369 84.9532515625298 39.79727815955907 C 0.0 **** -0.24
11407 H 44.39762001602858 85.45183236936268 39.08952454688773 H 0.0 **** 0.06
11408 H 43.055801985185525 85.68491895803467 40.23463857815514 H 0.0 **** 0.06
11409 H 44.327368740023616 84.48943576504598 40.584648852624355 H 0.0 **** 0.06
11410 H 43.157863990513476 84.18822049284029 39.27695268452621 H 0.0 **** 0.06
11411 C 102.08727079269387 5.789117660139141 1.7929239875713456 C 0.0 **** -0.24
11412 H 101.60831224007221 5.0155682912209585 1.1936106436098974 H 0.0 **** 0.06
11413 H 103.162086356165 5.777242774043401 1.6099677013874079 H 0.0 **** 0.06
11414 H 101.89653988093168 5.601244066673445 2.848938964421521 H 0.0 **** 0.06
11415 H 101.68227127293883 6.76333331847529 1.5188022651378006 H 0.0 **** 0.06
11416 C 3.681275013838068 1.9058378587460538 14.44456006683993 C 0.0 **** -0.24
11417 H 3.181837769143936 2.4172648904378775 13.621977989813033 H 0.0 **** 0.06
11418 H 3.2055488371196965 2.1824259025509605 15.386399346000669 H 0.0 **** 0.06
11419 H 4.731183906409274 2.1956615566259643 14.468910504022794 H 0.0 **** 0.06
11420 H 3.604758202553594 0.8282399388695012 14.301849404416817 H 0.0 **** 0.06
11421 C 44.58728273676442 56.72405785723262 54.111754619625074 C 0.0 **** -0.24
11422 H 43.50914901017066 56.5737582347742 54.158059101003644 H 0.0 **** 0.06
11423 H 44.83826497649895 57.694625650725186 54.53811065496109 H 0.0 **** 0.06
11424 H 44.91453573247017 56.68742265296842 53.07190083208644 H 0.0 **** 0.06
11425 H 45.08850139467273 55.93764503217197 54.676819433047356 H 0.0 **** 0.06
11426 C 66.75503414516672 68.16721136036958 88.23763693568026 C 0.0 **** -0.24
11427 H 66.28493080941048 68.85956997241146 87.53947158395522 H 0.0 **** 0.06
11428 H 67.0875871945997 67.27944926243342 87.69967281296638 H 0.0 **** 0.06
11429 H 66.03614414142756 67.88057624280711 89.00479396486412 H 0.0 **** 0.06
11430 H 67.61298017640885 68.65056542586036 88.70655911232899 H 0.0 **** 0.06
11431 C 123.76032680032631 87.33982025529673 41.76406369137442 C 0.0 **** -0.24
11432 H 124.70213011869181 87.47019976361818 41.230937843850654 H 0.0 **** 0.06
11433 H 123.8921479778547 86.6067285454802 42.560677941868164 H 0.0 **** 0.06
11434 H 122.9961151859428 86.99034785853763 41.0702444856214 H 0.0 **** 0.06
11435 H 123.45249972131391 88.29252064976399 42.194862845041996 H 0.0 **** 0.06
11436 C 46.02241550902323 112.44026328104627 111.71533772059158 C 0.0 **** -0.24
11437 H 45.99824976220273 113.35435515514143 112.30735752597579 H 0.0 **** 0.06
11438 H 47.01770436769306 111.99894551938456 111.77016659552876 H 0.0 **** 0.06
11439 H 45.785732094998906 112.67377669309445 110.67683111482614 H 0.0 **** 0.06
11440 H 45.2897528595245 111.73520463298965 112.10584139403872 H 0.0 **** 0.06
11441 C 0.506787172605998 106.76053877726471 9.799040978987705 C 0.0 **** -0.24
11442 H 0.16619978043982542 105.74981654718445 9.573481030733205 H 0.0 **** 0.06
11443 H 1.5934982862191625 106.80262366086473 9.725663275038698 H 0.0 **** 0.06
11444 H 0.1998533737211119 107.02955004868066 10.809921816848487 H 0.0 **** 0.06
11445 H 0.06570107397673652 107.45906563263233 9.088191670872448 H 0.0 **** 0.06
11446 C 87.0537325403863 30.688757062488037 5.043175741350751 C 0.0 **** -0.24
11447 H 85.99844583774947 30.696720114630196 5.313214537520992 H 0.0 **** 0.06
11448 H 87.64414566742195 31.08036063911014 5.871851479004675 H 0.0 **** 0.06
11449 H 87.20753356608643 31.310619622234064 4.160962216971313 H 0.0 **** 0.06
11450 H 87.36579223599261 29.667355460182222 4.826517130170572 H 0.0 **** 0.06
11451 C 81.53702243866019 47.75366240575241 27.822532357681098 C 0.0 **** -0.24
11452 H 81.95178206571893 48.41112958115113 27.057818758269605 H 0.0 **** 0.06
11453 H 81.95985399482072 46.754784038794526 27.70976703686722 H 0.0 **** 0.06
11454 H 80.45407826564656 47.7049447828696 27.709156985484725 H 0.0 **** 0.06
11455 H 81.78227859511185 48.14408172129188 28.809794024356023 H 0.0 **** 0.06
11456 C 50.92367643100462 66.90165652785053 128.81952526522286 C 0.0 **** -0.24
11457 H 51.43910863537347 66.26455712015017 129.53852073144324 H 0.0 **** 0.06
11458 H 50.102864366123924 67.41970833974989 129.31617139798908 H 0.0 **** 0.06
11459 H 50.52938892712734 66.28926315454034 128.00856028875293 H 0.0 **** 0.06
11460 H 51.62455840726504 67.63268480931528 128.41544405752563 H 0.0 **** 0.06
11461 C 77.46729820500153 121.04804209078287 87.19026690148408 C 0.0 **** -0.24
11462 H 77.6921311592275 120.38874375940469 88.0282163524412 H 0.0 **** 0.06
11463 H 76.95739220817802 121.93968185790771 87.55601942545093 H 0.0 **** 0.06
11464 H 76.82446540952188 120.52813656470414 86.48000800141992 H 0.0 **** 0.06
11465 H 78.39550007753593 121.33726359442346 86.69641699426143 H 0.0 **** 0.06
11466 C 49.818141844048995 107.51674045944918 80.68255894182062 C 0.0 **** -0.24
11467 H 49.13781715487377 107.05931837473821 79.96438151976693 H 0.0 **** 0.06
11468 H 49.31950874638352 107.61045046467487 81.64762628450356 H 0.0 **** 0.06
11469 H 50.11122725361889 108.50530596250431 80.32742977622448 H 0.0 **** 0.06
11470 H 50.705404232999825 106.89183062428233 80.79054363392439 H 0.0 **** 0.06
11471 C 106.09177387187222 129.4352361088781 80.63957038519906 C 0.0 **** -0.24
11472 H 105.45709750454343 130.14248050962084 81.17398105505357 H 0.0 **** 0.06
11473 H 106.93010436484832 129.96733122583336 80.1897067927755 H 0.0 **** 0.06
11474 H 105.50974407202254 128.9450307099945 79.85854253520456 H 0.0 **** 0.06
11475 H 106.46817669653949 128.68608708024368 81.33572272785344 H 0.0 **** 0.06
11476 C 45.01061321077964 8.045269646788682 106.28907896852081 C 0.0 **** -0.24
11477 H 44.636827946027005 9.045726815306125 106.07213317645426 H 0.0 **** 0.06
11478 H 44.81598652548082 7.393022419798655 105.4367981658275 H 0.0 **** 0.06
11479 H 44.50664525583118 7.652377280655884 107.17152970412195 H 0.0 **** 0.06
11480 H 46.084168467819985 8.09165310042306 106.47326143930411 H 0.0 **** 0.06
11481 C 115.3834639639284 86.53418474892908 103.4570438394906 C 0.0 **** -0.24
11482 H 114.42163740589531 86.73247475722815 102.98357869581815 H 0.0 **** 0.06
11483 H 115.33246105338394 86.80893054570191 104.5109237928637 H 0.0 **** 0.06
11484 H 116.15791120884859 87.12207960048835 102.96512561747235 H 0.0 **** 0.06
11485 H 115.6206126523325 85.47393198024398 103.36840951796772 H 0.0 **** 0.06
11486 C 2.8408778655617652 50.91210579449387 107.98288584527955 C 0.0 **** -0.24
11487 H 2.4158882108705484 51.91466818035694 107.96577414923416 H 0.0 **** 0.06
11488 H 2.1717238405718433 50.242641601557835 108.5245666790211 H 0.0 **** 0.06
11489 H 3.81080156076699 50.93700655995667 108.47992454070024 H 0.0 **** 0.06
11490 H 2.964596754124898 50.55246593262014 106.96104030122375 H 0.0 **** 0.06
11491 C 28.305871430526793 48.23214715764499 121.91556127621857 C 0.0 **** -0.24
11492 H 27.83689662409961 47.58807604040544 122.65957237059474 H 0.0 **** 0.06
11493 H 29.365098307051028 47.984292394438114 121.83623915683755 H 0.0 **** 0.06
11494 H 28.198727323390926 49.27460418326842 122.21782612905413 H 0.0 **** 0.06
11495 H 27.823249457288796 48.08252878073472 120.94957221777918 H 0.0 **** 0.06
11496 C 63.149632849652235 57.81222739420028 2.640764589291905 C 0.0 **** -0.24
11497 H 62.760920899496725 56.82537486052806 2.3888209731543384 H 0.0 **** 0.06
11498 H 63.95022901807573 57.71067115710272 3.3737772780818887 H 0.0 **** 0.06
11499 H 62.348177399683365 58.42113854991615 3.059683272868938 H 0.0 **** 0.06
11500 H 63.536984773964846 58.289738682857376 1.7411369520776816 H 0.0 **** 0.06
11501 C 81.46102067239127 17.864107845988997 6.021183698973175 C 0.0 **** -0.24
11502 H 80.68386069648768 17.64587280512174 5.288201194923261 H 0.0 **** 0.06
11503 H 81.21016780000994 18.782036881053727 6.553448325978479 H 0.0 **** 0.06
11504 H 82.41619330972463 17.98900166180354 5.511005058933222 H 0.0 **** 0.06
11505 H 81.53232766175961 17.040701484460243 6.730578967659369 H 0.0 **** 0.06
11506 C 121.1178472248896 130.6602576416446 49.87192624582059 C 0.0 **** -0.24
11507 H 121.61520361513556 130.01122867358234 50.59297028882446 H 0.0 **** 0.06
11508 H 120.24910648682527 131.1236952252684 50.33918483558131 H 0.0 **** 0.06
11509 H 120.79654709469122 130.07008321412408 49.0129914936071 H 0.0 **** 0.06
11510 H 121.81066552806357 131.43430293902145 49.54240974411351 H 0.0 **** 0.06
11511 C 51.520728686167786 87.39534495104454 124.14130911325654 C 0.0 **** -0.24
11512 H 50.932324577600355 88.11005618303163 123.56631267468748 H 0.0 **** 0.06
11513 H 52.23219148908561 86.89790425209098 123.4827433550914 H 0.0 **** 0.06
11514 H 50.857927722647844 86.65495116349484 124.58784614818723 H 0.0 **** 0.06
11515 H 52.06058704367689 87.92181299722563 124.92922845826746 H 0.0 **** 0.06
11516 C 6.1414424982904166 99.49607474700782 82.57057624311416 C 0.0 **** -0.24
11517 H 5.55009277781221 100.40814503833577 82.47841946956405 H 0.0 **** 0.06
11518 H 5.476265080365579 98.63291706898328 82.58555202904313 H 0.0 **** 0.06
11519 H 6.716702092057517 99.52882459863889 83.49632154658077 H 0.0 **** 0.06
11520 H 6.821978146214519 99.41742054895465 81.72265630066043 H 0.0 **** 0.06
11521 C 117.27165819619469 38.942781026273366 27.255178312588555 C 0.0 **** -0.24
11522 H 118.00328665996638 39.69858985109144 26.969482173995004 H 0.0 **** 0.06
11523 H 117.70585572533729 38.284414417048794 28.007880383374697 H 0.0 **** 0.06
11524 H 116.99104900328192 38.357770031457164 26.379405466277206 H 0.0 **** 0.06
11525 H 116.38728171309415 39.430890244139334 27.665360133568072 H 0.0 **** 0.06
11526 C 124.09103956972038 96.75981476646865 24.464273171126194 C 0.0 **** -0.24
11527 H 124.99054864683201 96.25062654107018 24.11556219269214 H 0.0 **** 0.06
11528 H 123.57727876642379 97.21085618541412 23.615411617772565 H 0.0 **** 0.06
11529 H 124.36849402100071 97.53718491025228 25.176760506173878 H 0.0 **** 0.06
11530 H 123.43140729626381 96.04040268103878 24.948892560403948 H 0.0 **** 0.06
11531 C 107.23582584561797 82.38052254561148 108.22828683627287 C 0.0 **** -0.24
11532 H 106.25320756098489 82.211005425613 107.7866265691712 H 0.0 **** 0.06
11533 H 107.15492757614311 83.13266988885286 109.01347939392147 H 0.0 **** 0.06
11534 H 107.92387836439593 82.73047915535156 107.45833189817182 H 0.0 **** 0.06
11535 H 107.60781858833235 81.44860192772902 108.65348185672283 H 0.0 **** 0.06
11536 C 5.264386493641883 65.4873451781281 65.68695576405847 C 0.0 **** -0.24
11537 H 5.786051722466773 65.90061619150269 66.55020250127191 H 0.0 **** 0.06
11538 H 5.562310752925811 66.02909557548917 64.78841238839831 H 0.0 **** 0.06
11539 H 4.188608291276665 65.58636966814082 65.83057630084741 H 0.0 **** 0.06
11540 H 5.520520751814125 64.43313681689268 65.57764662611368 H 0.0 **** 0.06
11541 C 78.79876012937075 45.932316181625396 61.45427092820027 C 0.0 **** -0.24
11542 H 79.84114404695151 46.05765709051556 61.15854641873939 H 0.0 **** 0.06
11543 H 78.16567657009719 45.95003135329878 60.565948932499964 H 0.0 **** 0.06
11544 H 78.51101135580453 46.74328386134354 62.12300444116073 H 0.0 **** 0.06
11545 H 78.67929076153683 44.978438083291536 61.96664387232525 H 0.0 **** 0.06
11546 C 65.22858224848603 44.802230600484826 110.09623234115895 C 0.0 **** -0.24
11547 H 65.54656147427974 45.744582276959896 110.54322680018484 H 0.0 **** 0.06
11548 H 64.23655075746451 44.9246802348004 109.65951255114297 H 0.0 **** 0.06
11549 H 65.19459053136003 44.029720058477594 110.86460237408693 H 0.0 **** 0.06
11550 H 65.9347058515201 44.511977478682056 109.31866496999393 H 0.0 **** 0.06
11551 C 90.75059389199048 36.15470363519532 20.140794580668654 C 0.0 **** -0.24
11552 H 90.10119083926591 36.92793895181248 20.55220475695006 H 0.0 **** 0.06
11553 H 90.27183983269504 35.18124033612207 20.253525705011384 H 0.0 **** 0.06
11554 H 91.70120458322711 36.155972099605634 20.67429733108949 H 0.0 **** 0.06
11555 H 90.92648132992066 36.3526150733407 19.083537218401887 H 0.0 **** 0.06
11556 C 113.52790704830208 23.360348591220855 91.00693609124394 C 0.0 **** -0.24
11557 H 114.06121662506608 23.093440448271565 90.09513767683848 H 0.0 **** 0.06
11558 H 112.48564415950558 23.054374730386968 90.92149319745333 H 0.0 **** 0.06
11559 H 113.57919932597783 24.439374802763496 91.15467587343113 H 0.0 **** 0.06
11560 H 113.98761349852587 22.85528402548988 91.85724445225219 H 0.0 **** 0.06
11561 C 62.35334588931056 60.30871246333945 89.3058855091463 C 0.0 **** -0.24
11562 H 63.162602553440905 60.001609163997685 88.642774107653 H 0.0 **** 0.06
11563 H 62.106014698920234 59.48785407446097 89.98083098344377 H 0.0 **** 0.06
11564 H 61.476982304890726 60.56892996128899 88.71319239270797 H 0.0 **** 0.06
11565 H 62.669799526933275 61.174817993892404 89.88786387983926 H 0.0 **** 0.06
11566 C 39.976250640512376 23.083783351943794 42.68627854367538 C 0.0 **** -0.24
11567 H 40.0068814239831 23.053420742197602 43.77544856687013 H 0.0 **** 0.06
11568 H 40.27383122001383 24.074497430944746 42.34301207178753 H 0.0 **** 0.06
11569 H 38.96447965822995 22.868810281820174 42.34506830295764 H 0.0 **** 0.06
11570 H 40.662172069876874 22.338851548503925 42.283380479336515 H 0.0 **** 0.06
11571 C 34.92324392790462 35.662496998683935 103.67106168350905 C 0.0 **** -0.24
11572 H 35.064516942605366 36.27286101521531 104.56355326606875 H 0.0 **** 0.06
11573 H 34.46095475047986 36.265346757119346 102.88843249846505 H 0.0 **** 0.06
11574 H 34.276675128880754 34.817326531271476 103.90886030443066 H 0.0 **** 0.06
11575 H 35.88903630844976 35.29544267767517 103.32430001927902 H 0.0 **** 0.06
11576 C 35.486362444287224 49.99657657493299 74.99869278450814 C 0.0 **** -0.24
11577 H 35.36437052819303 49.52659780760871 74.02197097541475 H 0.0 **** 0.06
11578 H 34.841544363346095 49.500291649165206 75.7232031868939 H 0.0 **** 0.06
11579 H 35.21550638081149 51.05031706466821 74.93022775286926 H 0.0 **** 0.06
11580 H 36.525870842668965 49.90856556355891 75.31571937944324 H 0.0 **** 0.06
11581 C 18.750943042269625 111.97985788794387 40.620152441544235 C 0.0 **** -0.24
11582 H 19.705211471485228 111.70202133891576 40.17156896034419 H 0.0 **** 0.06
11583 H 18.264037759268803 112.73342607291181 39.999621369129045 H 0.0 **** 0.06
11584 H 18.922624283552608 112.38630182140872 41.61742542963093 H 0.0 **** 0.06
11585 H 18.112746169153354 111.09880690415918 40.69186309315296 H 0.0 **** 0.06
11586 C 25.499966326655652 17.049113724807313 47.9116239684908 C 0.0 **** -0.24
11587 H 24.957846020665926 16.155188238677425 47.60446566033937 H 0.0 **** 0.06
11588 H 26.129944091833153 17.391997071962066 47.09071257962552 H 0.0 **** 0.06
11589 H 26.121713732670003 16.817247841472607 48.77626946579869 H 0.0 **** 0.06
11590 H 24.788958633431804 17.832197253555748 48.17501098043539 H 0.0 **** 0.06
11591 C 101.63174572288443 60.518176650976216 64.42531014462713 C 0.0 **** -0.24
11592 H 100.8966481568537 59.733773166675036 64.60543013733107 H 0.0 **** 0.06
11593 H 101.12942662609606 61.40220107133746 64.02983582494659 H 0.0 **** 0.06
11594 H 102.36853305909938 60.1659718567401 63.70421195039279 H 0.0 **** 0.06
11595 H 102.12944469739284 60.770761571212375 65.36057371884237 H 0.0 **** 0.06
11596 C 6.563600832885555 75.91549529194967 97.43434484551601 C 0.0 **** -0.24
11597 H 6.280989772330784 76.48131905839031 96.54671321416666 H 0.0 **** 0.06
11598 H 7.385183763880718 76.4214178819702 97.94139838080571 H 0.0 **** 0.06
11599 H 6.877790149478443 74.91393032119677 97.1418502078311 H 0.0 **** 0.06
11600 H 5.708592163971815 75.8454912201237 98.10667219728771 H 0.0 **** 0.06
11601 C 55.1330779800694 41.32371419978581 28.571168644166633 C 0.0 **** -0.24
11602 H 54.368786119232595 41.08331186548833 29.309748430957363 H 0.0 **** 0.06
11603 H 55.91964546866052 41.91460248928192 29.040903789195113 H 0.0 **** 0.06
11604 H 54.684905487448134 41.89587328404346 27.757773312347034 H 0.0 **** 0.06
11605 H 55.55837715268058 40.401891521725375 28.175265887210713 H 0.0 **** 0.06
11606 C 115.2069057342797 108.08433101967714 75.6308771625486 C 0.0 **** -0.24
11607 H 115.22211900245014 107.00089478391651 75.51120274962399 H 0.0 **** 0.06
11608 H 115.74567027431263 108.35711318071507 76.53858535417815 H 0.0 **** 0.06
11609 H 114.17504440920226 108.42842080641388 75.70209443572345 H 0.0 **** 0.06
11610 H 115.68688138309417 108.55018293781907 74.77056977320169 H 0.0 **** 0.06
11611 C 64.34832114238179 76.73172032152337 61.81714112625488 C 0.0 **** -0.24
11612 H 65.1969500568578 77.41044675227852 61.73984432585081 H 0.0 **** 0.06
11613 H 64.30152686557742 76.3214010485479 62.826505743409996 H 0.0 **** 0.06
11614 H 64.46702974240571 75.91932146005672 61.10007499468145 H 0.0 **** 0.06
11615 H 63.42822639488453 77.2743727464429 61.60221224783572 H 0.0 **** 0.06
11616 C 15.259850920024519 62.406059725869866 29.01947134316832 C 0.0 **** -0.24
11617 H 15.51478843041727 61.3673362721176 29.227668068310663 H 0.0 **** 0.06
11618 H 16.063654131592727 63.05437664723706 29.370126597376682 H 0.0 **** 0.06
11619 H 14.333816923925639 62.66354678631602 29.534548987476455 H 0.0 **** 0.06
11620 H 15.126990575748096 62.54070226844635 27.945454559836918 H 0.0 **** 0.06
11621 C 61.91164095432069 25.734243851052156 51.054645729270334 C 0.0 **** -0.24
11622 H 61.54735778054932 25.60548939741912 50.035573351046565 H 0.0 **** 0.06
11623 H 61.18448178835422 25.324104089660267 51.75582789014109 H 0.0 **** 0.06
11624 H 62.05416170915231 26.795462420249834 51.25706958466881 H 0.0 **** 0.06
11625 H 62.86149212475952 25.212126942418536 51.16906664922061 H 0.0 **** 0.06
11626 C 48.61718161105908 37.50605756851223 86.37317266935614 C 0.0 **** -0.24
11627 H 47.81355814428825 38.211231630391524 86.15638833827417 H 0.0 **** 0.06
11628 H 49.57908369652452 37.98956947786121 86.20382964602928 H 0.0 **** 0.06
11629 H 48.524357738722685 36.63927700029086 85.71860207662 H 0.0 **** 0.06
11630 H 48.54777409419181 37.1853173703243 87.41244971324379 H 0.0 **** 0.06
11631 C 20.72337107107211 9.132753955738849 103.65125806359889 C 0.0 **** -0.24
11632 H 21.211671974268995 9.817101926197466 104.34556966086237 H 0.0 **** 0.06
11633 H 20.739372734144865 8.123894581525207 104.06432490039482 H 0.0 **** 0.06
11634 H 21.253572977846687 9.143618523780873 102.69806738797887 H 0.0 **** 0.06
11635 H 19.691661000554518 9.446513757015964 103.49664722018774 H 0.0 **** 0.06
11636 C 91.23560582488096 29.56626597597375 22.492873476273687 C 0.0 **** -0.24
11637 H 91.89171174319888 29.373304519824615 21.644051718826994 H 0.0 **** 0.06
11638 H 90.29134226401976 29.97781392225636 22.136101706417882 H 0.0 **** 0.06
11639 H 91.71154729794986 30.279675096802464 23.16603217887267 H 0.0 **** 0.06
11640 H 91.04782199435533 28.634270365011616 23.025308300977528 H 0.0 **** 0.06
11641 C 89.06516082127604 53.34716475620007 0.26257347239612727 C 0.0 **** -0.24
11642 H 88.22706625850756 53.327592481091116 -0.4341516568009638 H 0.0 **** 0.06
11643 H 88.71585367787122 53.67613323552767 1.2410251579215696 H 0.0 **** 0.06
11644 H 89.8246075281111 54.038806347393646 -0.10383224530289681 H 0.0 **** 0.06
11645 H 89.49190331973531 52.348319957153365 0.3450797959908982 H 0.0 **** 0.06
11646 C 107.86331896400841 10.832831167641416 101.92148844189553 C 0.0 **** -0.24
11647 H 107.24025983165396 11.173600091271908 101.09512636782446 H 0.0 **** 0.06
11648 H 107.52691716711277 9.849722703023303 102.24877420961576 H 0.0 **** 0.06
11649 H 107.78425310999765 11.53866483629929 102.74902512257074 H 0.0 **** 0.06
11650 H 108.90116057855889 10.77263552036419 101.59383506343568 H 0.0 **** 0.06
11651 C 1.5077247955161006 86.42037556264646 63.85918606092844 C 0.0 **** -0.24
11652 H 1.9675131203561094 87.10739081697056 63.14905214187725 H 0.0 **** 0.06
11653 H 0.43336319199724826 86.37664312687278 63.677722168933045 H 0.0 **** 0.06
11654 H 1.6901873999355068 86.77113965276749 64.87495592733725 H 0.0 **** 0.06
11655 H 1.9387462928972248 85.4272294874934 63.735062011802285 H 0.0 **** 0.06
11656 C 120.29196439566743 32.19120981807882 71.92832457941348 C 0.0 **** -0.24
11657 H 121.04162513451881 31.75778512902238 72.59053096711004 H 0.0 **** 0.06
11658 H 119.94196672773572 33.135168530116204 72.34615116294731 H 0.0 **** 0.06
11659 H 119.452448281376 31.50282490355869 71.83031752797315 H 0.0 **** 0.06
11660 H 120.73385138047723 32.3682302997006 70.94738209734307 H 0.0 **** 0.06
11661 C 50.676577091722436 53.41365748549288 106.47544397446825 C 0.0 **** -0.24
11662 H 50.28575611937579 52.576095938495996 107.05446139307446 H 0.0 **** 0.06
11663 H 50.806663212870035 53.107919794395116 105.43767401263293 H 0.0 **** 0.06
11664 H 51.63691957707293 53.72275364000666 106.8873156905212 H 0.0 **** 0.06
11665 H 49.974703244143484 54.246245790016246 106.52412962316899 H 0.0 **** 0.06
11666 C 14.961693243356272 49.20324890350716 16.269507980922185 C 0.0 **** -0.24
11667 H 14.01823630086773 48.74675724717119 15.969908508997491 H 0.0 **** 0.06
11668 H 15.473022400603092 48.549301817407326 16.976580271782154 H 0.0 **** 0.06
11669 H 14.764965666728678 50.16596463984163 16.740965427658807 H 0.0 **** 0.06
11670 H 15.589547693721787 49.35009309668189 15.391053084475061 H 0.0 **** 0.06
11671 C 97.80272021376123 119.846102236555 24.395339043303977 C 0.0 **** -0.24
11672 H 98.19602663252539 120.36897164530464 23.524035385302568 H 0.0 **** 0.06
11673 H 98.59892853864392 119.25900269330347 24.856210026824414 H 0.0 **** 0.06
11674 H 96.99435439243075 119.1831857623398 24.086763414895387 H 0.0 **** 0.06
11675 H 97.42361115466207 120.5723492702989 25.114520558980956 H 0.0 **** 0.06
11676 C 3.2678371860884816 21.845879864508106 101.60511827847861 C 0.0 **** -0.24
11677 H 2.410965658814824 22.309882070745033 101.11596222254336 H 0.0 **** 0.06
11678 H 4.047493678495055 22.592609768004507 101.7579244132992 H 0.0 **** 0.06
11679 H 3.6531012418848015 21.04133329047218 100.97811594251917 H 0.0 **** 0.06
11680 H 2.959788165159136 21.43969432881073 102.56847053555293 H 0.0 **** 0.06
11681 C 0.35534883903324044 42.615619300310016 82.46036568798203 C 0.0 **** -0.24
11682 H -0.5706385735169874 43.190381593924116 82.41334234995563 H 0.0 **** 0.06
11683 H 0.12208229078805743 41.550439874413826 82.44973387480857 H 0.0 **** 0.06
11684 H 0.8894569781314772 42.86234581920661 83.37833193448395 H 0.0 **** 0.06
11685 H 0.9784232659547456 42.86110091114472 81.60076318241533 H 0.0 **** 0.06
11686 C 113.37481103501877 104.27381004929211 39.987823494785516 C 0.0 **** -0.24
11687 H 113.40453857777176 103.19878295008002 39.81293660087693 H 0.0 **** 0.06
11688 H 112.82402363421359 104.75876757127222 39.1811029853442 H 0.0 **** 0.06
11689 H 114.3928383964177 104.66478149802296 40.01940207472766 H 0.0 **** 0.06
11690 H 112.88001424746007 104.47291155926459 40.93838921788449 H 0.0 **** 0.06
11691 C 1.7414258016421549 94.69752851231507 116.1271154012909 C 0.0 **** -0.24
11692 H 2.5278568378058957 95.20545532502597 116.68716197128705 H 0.0 **** 0.06
11693 H 0.8267961556138772 94.68255601619961 116.71959821801411 H 0.0 **** 0.06
11694 H 2.053133841318548 93.67563652930701 115.91073760515465 H 0.0 **** 0.06
11695 H 1.5612318052693723 95.22839518663058 115.19247635186653 H 0.0 **** 0.06
11696 C 56.05951503387931 55.77556271103573 66.93151164710348 C 0.0 **** -0.24
11697 H 56.57093681035519 55.48045247452171 66.01452404458799 H 0.0 **** 0.06
11698 H 56.179932810654805 54.9930100584496 67.68181590014875 H 0.0 **** 0.06
11699 H 54.99983317510163 55.92278668434669 66.72517241742852 H 0.0 **** 0.06
11700 H 56.49031701957051 56.70491093864689 67.30430783696106 H 0.0 **** 0.06
11701 C 4.350276828409889 112.16320912326469 89.63959291746315 C 0.0 **** -0.24
11702 H 5.145890399468556 112.21457644822071 90.38176797863426 H 0.0 **** 0.06
11703 H 4.726243012318918 111.67961831130734 88.73675852019355 H 0.0 **** 0.06
11704 H 4.013494994230427 113.17134792534587 89.39759160690409 H 0.0 **** 0.06
11705 H 3.516033254272841 111.58715133917222 90.03948357315275 H 0.0 **** 0.06
11706 C 10.300847154961758 86.75861669691565 79.0383007938128 C 0.0 **** -0.24
11707 H 11.33566808882793 86.51454354864521 78.79980266321758 H 0.0 **** 0.06
11708 H 10.276762074486754 87.49479848121462 79.84190129844528 H 0.0 **** 0.06
11709 H 9.778954556539901 85.8556623635425 79.35696852244014 H 0.0 **** 0.06
11710 H 9.811949712310366 87.16779030951162 78.1549794273018 H 0.0 **** 0.06
11711 C 6.8666108648183695 70.39792104674652 27.78151584597859 C 0.0 **** -0.24
11712 H 7.6361995391822575 69.77948400929145 28.24517678106389 H 0.0 **** 0.06
11713 H 5.920035532389079 70.25017330200387 28.30240477151807 H 0.0 **** 0.06
11714 H 6.755092953769918 70.11440319030007 26.7351517470496 H 0.0 **** 0.06
11715 H 7.157174062118656 71.44733256175928 27.8454929066435 H 0.0 **** 0.06
11716 C 109.5835590090731 13.803010181159465 11.873850503191278 C 0.0 **** -0.24
11717 H 108.7365371276444 13.857185340640797 12.558277631785074 H 0.0 **** 0.06
11718 H 110.08827117820283 14.76938705499336 11.844783170152311 H 0.0 **** 0.06
11719 H 109.2271536476012 13.547871082878913 10.876049567376128 H 0.0 **** 0.06
11720 H 110.28005057037979 13.03849865227673 12.218351745090075 H 0.0 **** 0.06
11721 C 6.7198013054329735 47.69622538442215 75.34451683052845 C 0.0 **** -0.24
11722 H 6.651557493250465 46.685766758041865 75.74747044261352 H 0.0 **** 0.06
11723 H 7.117040144038409 47.65697772641809 74.32965257238851 H 0.0 **** 0.06
11724 H 7.381304309509492 48.2939251376599 75.97085236015792 H 0.0 **** 0.06
11725 H 5.726984526997882 48.14839401074329 75.32931898585491 H 0.0 **** 0.06
11726 C 13.840529256857284 106.14763046554081 127.26539009206653 C 0.0 **** -0.24
11727 H 13.778863989813981 106.66794576029382 128.22168759323318 H 0.0 **** 0.06
11728 H 13.063031244363799 105.3833089817789 127.21795446766066 H 0.0 **** 0.06
11729 H 14.818853740451061 105.67750394509225 127.16958985620937 H 0.0 **** 0.06
11730 H 13.698246492746037 106.86071459247165 126.45410528002401 H 0.0 **** 0.06
11731 C 8.125628057812094 20.19490224528613 35.91316278342552 C 0.0 **** -0.24
11732 H 8.054497081457257 21.124712363654112 35.34918674338053 H 0.0 **** 0.06
11733 H 9.149622281707806 19.8240910242813 35.8738905316163 H 0.0 **** 0.06
11734 H 7.453730891844714 19.454381206150458 35.478959752075156 H 0.0 **** 0.06
11735 H 7.843709996849199 20.376290655869354 36.95088961917102 H 0.0 **** 0.06
11736 C 14.941115555094996 117.5929816394135 4.054432183759758 C 0.0 **** -0.24
11737 H 14.303526113520633 117.64047097951456 4.937834694653844 H 0.0 **** 0.06
11738 H 15.670781415089436 118.40218923459685 4.090143425666582 H 0.0 **** 0.06
11739 H 14.328041517836596 117.6939183294385 3.1588097834966504 H 0.0 **** 0.06
11740 H 15.460268938053531 116.6347148854145 4.033430510232279 H 0.0 **** 0.06
11741 C 92.27221066637922 93.85051829993697 78.40558843296674 C 0.0 **** -0.24
11742 H 91.89779954447965 94.42360207246011 79.25377872256666 H 0.0 **** 0.06
11743 H 91.43096760172376 93.46295835434888 77.82940099462928 H 0.0 **** 0.06
11744 H 92.87742280210408 93.01907120291429 78.76837008421683 H 0.0 **** 0.06
11745 H 92.8809924215138 94.49492316966062 77.77177254504898 H 0.0 **** 0.06
11746 C 38.04185901056766 86.22247382521061 94.31070145203 C 0.0 **** -0.24
11747 H 38.81610019396771 85.98319698212325 95.03963810845961 H 0.0 **** 0.06
11748 H 37.91368260728271 85.38263416044391 93.62876997206241 H 0.0 **** 0.06
11749 H 38.33539014338268 87.10762513583127 93.74654979614049 H 0.0 **** 0.06
11750 H 37.102769511614525 86.41724156310127 94.82816341414633 H 0.0 **** 0.06
11751 C 7.056735182345051 69.24583027058173 38.329857913927924 C 0.0 **** -0.24
11752 H 7.661738689154845 68.69143476244483 39.047487248773365 H 0.0 **** 0.06
11753 H 6.495761519932387 70.0211016972051 38.851117156724484 H 0.0 **** 0.06
11754 H 6.363462361733582 68.56350396614567 37.8369094975358 H 0.0 **** 0.06
11755 H 7.706164828597139 69.70488882167655 37.58541599428719 H 0.0 **** 0.06
11756 C 15.90065372769368 67.19691336608219 10.167190137101215 C 0.0 **** -0.24
11757 H 15.090033533580595 67.89410496948858 10.379365168888626 H 0.0 **** 0.06
11758 H 16.592496968057304 67.17633553134567 11.009648440235537 H 0.0 **** 0.06
11759 H 16.43024514151159 67.51814394095857 9.270105782430903 H 0.0 **** 0.06
11760 H 15.490163152499633 66.1998612180331 10.009123874691227 H 0.0 **** 0.06
11761 C 25.783052499336755 71.00589089464384 10.314516735733164 C 0.0 **** -0.24
11762 H 24.77225374933947 70.7852977984961 9.971349073128543 H 0.0 **** 0.06
11763 H 25.738551409924078 71.49661791730811 11.286423147052346 H 0.0 **** 0.06
11764 H 26.2744101498118 71.6630165478642 9.596395539861643 H 0.0 **** 0.06
11765 H 26.34685088415523 70.07704645105237 10.402328257466806 H 0.0 **** 0.06
11766 C 115.83686468575033 103.67450192914151 73.57967621495555 C 0.0 **** -0.24
11767 H 115.1087603999211 104.48047366582969 73.48834617439157 H 0.0 **** 0.06
11768 H 116.51806648967423 103.89197949032467 74.40192437970266 H 0.0 **** 0.06
11769 H 116.40208803757301 103.58920159055639 72.65188644707135 H 0.0 **** 0.06
11770 H 115.31733653131852 102.73589662016168 73.77596965371352 H 0.0 **** 0.06
11771 C 72.52174576471221 92.00548939129969 104.14945739884126 C 0.0 **** -0.24
11772 H 71.73891039754469 91.75115520318566 103.43529610960482 H 0.0 **** 0.06
11773 H 72.08721362046698 92.10754829264647 105.1438885263325 H 0.0 **** 0.06
11774 H 72.98762657906339 92.94598285154176 103.85747363837223 H 0.0 **** 0.06
11775 H 73.27266469879916 91.2152651725476 104.16036279938214 H 0.0 **** 0.06
11776 C 87.89470196222545 68.7786726265191 33.207476635624005 C 0.0 **** -0.24
11777 H 88.40560283986336 69.73502249239772 33.316530127925205 H 0.0 **** 0.06
11778 H 86.82131237193718 68.92462811183327 33.33091199157815 H 0.0 **** 0.06
11779 H 88.25712784951612 68.0836972642199 33.96501026336091 H 0.0 **** 0.06
11780 H 88.09451740312437 68.37140545304936 32.21606312870114 H 0.0 **** 0.06
11781 C 55.8324964587506 40.003872728229574 24.975166884577163 C 0.0 **** -0.24
11782 H 55.17698943368626 39.9863003238735 24.10550653713193 H 0.0 **** 0.06
11783 H 55.94786062878612 41.03074619124543 25.323433338413622 H 0.0 **** 0.06
11784 H 56.807587375019736 39.600417814972275 24.703396263606862 H 0.0 **** 0.06
11785 H 55.39754432721497 39.39733208909629 25.769918166227455 H 0.0 **** 0.06
11786 C 86.69712680519058 68.01101221969463 86.48591265748261 C 0.0 **** -0.24
11787 H 86.19307430437806 67.05119033463149 86.37446547192525 H 0.0 **** 0.06
11788 H 87.77426112876833 67.86719720252125 86.39637827829327 H 0.0 **** 0.06
11789 H 86.46665028805927 68.43186391490411 87.46399743256714 H 0.0 **** 0.06
11790 H 86.35602768760884 68.69317068984992 85.70698217208603 H 0.0 **** 0.06
11791 C 15.327171142268856 97.51597024488859 130.66303895200443 C 0.0 **** -0.24
11792 H 14.755863092909063 96.69726124678905 130.22504216880466 H 0.0 **** 0.06
11793 H 16.377030464315418 97.23072188663335 130.72910890272317 H 0.0 **** 0.06
11794 H 14.944536299262563 97.7327462964852 131.66058053596527 H 0.0 **** 0.06
11795 H 15.229391016648382 98.40323518667483 130.03670318312717 H 0.0 **** 0.06
11796 C 56.51117485855244 61.82172421560324 49.44930302035077 C 0.0 **** -0.24
11797 H 55.98444034314767 62.34444591473982 50.248305085753486 H 0.0 **** 0.06
11798 H 57.54960227270752 62.152662693442494 49.421361497119946 H 0.0 **** 0.06
11799 H 56.03228143433685 62.04256487823886 48.4947685665092 H 0.0 **** 0.06
11800 H 56.47577482959102 60.74763206837417 49.63381159853924 H 0.0 **** 0.06
11801 C 48.225351200588136 76.25486807638964 116.65718889307578 C 0.0 **** -0.24
11802 H 47.616939200313425 75.61968127601403 116.01385383036697 H 0.0 **** 0.06
11803 H 49.18901858050549 76.43576123506807 116.18063214200245 H 0.0 **** 0.06
11804 H 48.38122887697526 75.75898566263083 117.61488310873338 H 0.0 **** 0.06
11805 H 47.71529139940782 77.20451431704043 116.81813445759511 H 0.0 **** 0.06
11806 C 50.17318254852708 63.57540229070992 33.820070906678716 C 0.0 **** -0.24
11807 H 49.8085226351711 63.19213182755547 34.772792974515916 H 0.0 **** 0.06
11808 H 51.24125470214446 63.778009635719314 33.894633417790125 H 0.0 **** 0.06
11809 H 49.643403044260396 64.49560594812323 33.572191058361625 H 0.0 **** 0.06
11810 H 49.9971491033223 62.833991511637066 33.03980631684227 H 0.0 **** 0.06
11811 C 76.18414494103634 77.3619157687865 10.599746788462141 C 0.0 **** -0.24
11812 H 75.93220536307805 76.32557535966723 10.376481404905974 H 0.0 **** 0.06
11813 H 76.63229095465367 77.82457888241731 9.719296577316868 H 0.0 **** 0.06
11814 H 76.89284738143174 77.39278107120145 11.427196872511729 H 0.0 **** 0.06
11815 H 75.27996143260128 77.90490661992538 10.874811481264715 H 0.0 **** 0.06
11816 C 20.57746032486321 95.46860151361523 90.6256422474329 C 0.0 **** -0.24
11817 H 20.66970529550443 96.04874021695124 89.70786374478071 H 0.0 **** 0.06
11818 H 19.558005884967116 95.54802420809025 91.0054254051821 H 0.0 **** 0.06
11819 H 21.273576758440385 95.85320610209853 91.37025263295493 H 0.0 **** 0.06
11820 H 20.80761469817392 94.42298435979845 90.41891234328118 H 0.0 **** 0.06
11821 C 34.710934777771854 32.49162508192768 114.97041967341477 C 0.0 **** -0.24
11822 H 35.330021056046064 32.35782540113925 115.85748071530946 H 0.0 **** 0.06
11823 H 34.00522413137048 33.30530755559957 115.13935402642261 H 0.0 **** 0.06
11824 H 34.16377523573988 31.571453095279907 114.76670322313021 H 0.0 **** 0.06
11825 H 35.34654375118231 32.73317170423107 114.11784358010715 H 0.0 **** 0.06
11826 C 13.896407718804113 17.332238212485485 35.89579312768484 C 0.0 **** -0.24
11827 H 13.876778474922702 17.245333919239997 36.982297533817984 H 0.0 **** 0.06
11828 H 14.833760852147407 17.792667078869535 35.584869041876175 H 0.0 **** 0.06
11829 H 13.060914442736959 17.94925099569312 35.56612565388417 H 0.0 **** 0.06
11830 H 13.812698083530762 16.34030538452681 35.450810567679866 H 0.0 **** 0.06
11831 C 36.1196211212482 115.9794857427546 71.41169982778075 C 0.0 **** -0.24
11832 H 37.03843282733675 115.4352073925075 71.63069209510167 H 0.0 **** 0.06
11833 H 35.783596236393976 115.73299876292302 70.40351332349837 H 0.0 **** 0.06
11834 H 36.30706806004508 117.05094462272885 71.4807720634746 H 0.0 **** 0.06
11835 H 35.35019801384391 115.6976247919238 72.13041461862684 H 0.0 **** 0.06
11836 C 24.191883391185122 73.65657451200522 64.39682025794923 C 0.0 **** -0.24
11837 H 23.661015937787987 72.75251239773957 64.6960174199271 H 0.0 **** 0.06
11838 H 23.74754229547157 74.05408487607109 63.48395279292208 H 0.0 **** 0.06
11839 H 25.240450252793877 73.41992639780787 64.21771513005831 H 0.0 **** 0.06
11840 H 24.1174569472619 74.39924326182913 65.19148706201878 H 0.0 **** 0.06
11841 C 41.15820146475404 64.97756056705418 116.71252530173675 C 0.0 **** -0.24
11842 H 41.70263557978234 64.0575898203586 116.92948816902404 H 0.0 **** 0.06
11843 H 40.087768970468794 64.79605885309752 116.80753506694121 H 0.0 **** 0.06
11844 H 41.383545387971026 65.30134246345722 115.69651651363043 H 0.0 **** 0.06
11845 H 41.459503465778354 65.75203519136954 117.41705036560057 H 0.0 **** 0.06
11846 C 107.56020791629375 112.75206078120648 2.668300735965147 C 0.0 **** -0.24
11847 H 108.00478104695217 112.3257250508765 1.7690059855046414 H 0.0 **** 0.06
11848 H 108.00717790054705 112.28854875155525 3.5486580429884036 H 0.0 **** 0.06
11849 H 106.48614850573611 112.56693324017944 2.664889905024612 H 0.0 **** 0.06
11850 H 107.74466902304029 113.82647162186784 2.6897006570089346 H 0.0 **** 0.06
11851 C 118.08495336721612 71.16962850934587 78.55969989515157 C 0.0 **** -0.24
11852 H 117.43559742814577 70.30373070745557 78.43128524951234 H 0.0 **** 0.06
11853 H 118.76663694287228 71.24068716627832 77.71148901264309 H 0.0 **** 0.06
11854 H 118.65996063380192 71.05956070331254 79.479612521771 H 0.0 **** 0.06
11855 H 117.47932682988915 72.07312498652024 78.61610893898657 H 0.0 **** 0.06
11856 C 92.06412955466011 110.65477950333494 76.18935442895382 C 0.0 **** -0.24
11857 H 92.85651358752301 110.20828780777634 75.58847158657674 H 0.0 **** 0.06
11858 H 91.8593510110603 111.66275729092045 75.82830594322337 H 0.0 **** 0.06
11859 H 92.38028570118718 110.69927637762657 77.23178515398159 H 0.0 **** 0.06
11860 H 91.1624800918548 110.04880692876226 76.10812093596331 H 0.0 **** 0.06
11861 C 20.840826444993922 21.733492826225756 11.081714165741403 C 0.0 **** -0.24
11862 H 20.208436446903647 22.577508373029247 10.807909364944521 H 0.0 **** 0.06
11863 H 21.603349732648724 22.064630486643765 11.787163378409502 H 0.0 **** 0.06
11864 H 21.320921668622532 21.333523226869247 10.18892564994701 H 0.0 **** 0.06
11865 H 20.23019181893079 20.958443252734497 11.545053124299898 H 0.0 **** 0.06
11866 C 47.22253930943339 11.849358060344173 129.48110041580193 C 0.0 **** -0.24
11867 H 47.66640569602952 12.252067402487437 130.39234098081337 H 0.0 **** 0.06
11868 H 47.77124115113311 10.959826955340443 129.17249039889373 H 0.0 **** 0.06
11869 H 47.27220465692047 12.599259129640089 128.6911464609733 H 0.0 **** 0.06
11870 H 46.181216189821235 11.588942380771154 129.67017789691013 H 0.0 **** 0.06
11871 C 55.196927601537226 29.22222698779524 52.14331240510802 C 0.0 **** -0.24
11872 H 55.450336966066004 28.38125199677779 52.79029411778146 H 0.0 **** 0.06
11873 H 56.10321350340081 29.77476344824248 51.89450762440484 H 0.0 **** 0.06
11874 H 54.50012019346886 29.880810455628364 52.661601619817645 H 0.0 **** 0.06
11875 H 54.73479254927469 28.849981049581956 51.229086713188366 H 0.0 **** 0.06
11876 C 90.60813478414562 121.12589798226713 90.54703869901712 C 0.0 **** -0.24
11877 H 91.20354033304861 122.02233553576859 90.37585348922079 H 0.0 **** 0.06
11878 H 89.62427462259353 121.25028373289473 90.0941459268843 H 0.0 **** 0.06
11879 H 90.4961005537692 120.96383198734868 91.62012375562173 H 0.0 **** 0.06
11880 H 91.10817996785644 120.26668682023318 90.10017579405815 H 0.0 **** 0.06
11881 C 68.77452971287832 69.01752874886688 3.6377202054133306 C 0.0 **** -0.24
11882 H 69.80146032365457 68.65908393091824 3.5727797932448766 H 0.0 **** 0.06
11883 H 68.17891121567553 68.31119963692326 4.2162089890166214 H 0.0 **** 0.06
11884 H 68.35655833253165 69.10815451229459 2.6348969947319745 H 0.0 **** 0.06
11885 H 68.75954278034584 69.99115827323551 4.127140667700473 H 0.0 **** 0.06
11886 C 85.53331832654686 43.124963519524954 39.8395247080164 C 0.0 **** -0.24
11887 H 84.6787686370504 42.451246906271365 39.7708569172236 H 0.0 **** 0.06
11888 H 86.27310004061911 42.85171252840365 39.08689638191369 H 0.0 **** 0.06
11889 H 85.97792391151462 43.047480773106145 40.83182394741473 H 0.0 **** 0.06
11890 H 85.20132745924394 44.14890954929439 39.66885237407472 H 0.0 **** 0.06
11891 C 121.78880970528562 119.01658956938167 43.92510110554364 C 0.0 **** -0.24
11892 H 121.73820383165432 118.05968667908867 43.40505840977613 H 0.0 **** 0.06
11893 H 121.5470849993398 118.87126417037831 44.97735919725743 H 0.0 **** 0.06
11894 H 121.07560486798332 119.71043669061089 43.47973999310926 H 0.0 **** 0.06
11895 H 122.795317377414 119.42511019479592 43.83623795391118 H 0.0 **** 0.06
11896 C 104.47286780415527 127.2419578254868 114.07054593367566 C 0.0 **** -0.24
11897 H 104.71622538232197 126.9869528248811 115.10156143327042 H 0.0 **** 0.06
11898 H 105.26735622922786 127.86092716193748 113.65217332038337 H 0.0 **** 0.06
11899 H 103.5312857618315 127.7915208343148 114.04378225960302 H 0.0 **** 0.06
11900 H 104.37660782356477 126.32895006399106 113.48301439420034 H 0.0 **** 0.06
11901 C 39.21449199904524 122.31395303067248 35.21498347716346 C 0.0 **** -0.24
11902 H 39.52866958254532 122.03076561024604 34.20952989903412 H 0.0 **** 0.06
11903 H 39.46537454317395 123.36003975244994 35.39147711807101 H 0.0 **** 0.06
11904 H 39.72808312759997 121.68747468924363 35.944824936489965 H 0.0 **** 0.06
11905 H 38.13759158413771 122.17589992614806 35.311597692649684 H 0.0 **** 0.06
11906 C 130.63990411333464 19.547465455023826 48.547666957455675 C 0.0 **** -0.24
11907 H 130.51429227702047 20.46285718399497 47.96973954212783 H 0.0 **** 0.06
11908 H 129.7147707707601 19.323995700569924 49.079407554424975 H 0.0 **** 0.06
11909 H 131.44875338981336 19.6794433940658 49.26525810617068 H 0.0 **** 0.06
11910 H 130.880964500722 18.724258227302016 47.875355867552585 H 0.0 **** 0.06
11911 C 108.9878499368773 101.20180497017526 105.91194714502846 C 0.0 **** -0.24
11912 H 108.97101053723225 101.12547755266343 104.82480914888066 H 0.0 **** 0.06
11913 H 109.29566514316849 102.20765854863924 106.20065797724129 H 0.0 **** 0.06
11914 H 109.69374975528973 100.47620660265818 106.31503507384141 H 0.0 **** 0.06
11915 H 107.99267821856171 100.99873052772824 106.30611643414908 H 0.0 **** 0.06
11916 C 23.24818017783838 86.56776243206653 40.029716903810424 C 0.0 **** -0.24
11917 H 23.282713714871846 86.93823220769906 39.00494128058541 H 0.0 **** 0.06
11918 H 23.64946303787883 87.32415549029818 40.70345722499647 H 0.0 **** 0.06
11919 H 23.844365982863252 85.65834056883503 40.107735212626835 H 0.0 **** 0.06
11920 H 22.21560739558143 86.34910378446506 40.30229593244536 H 0.0 **** 0.06
11921 C 66.74252199357477 110.75035850341561 110.82655811887804 C 0.0 **** -0.24
11922 H 65.9631549494407 110.93431691783152 111.56610242873525 H 0.0 **** 0.06
11923 H 67.0656083021185 111.69841412690204 110.39614289936964 H 0.0 **** 0.06
11924 H 66.34915264963394 110.10890520035517 110.03764195337348 H 0.0 **** 0.06
11925 H 67.59007597978444 110.26054022454898 111.30610975474644 H 0.0 **** 0.06
11926 C 68.19125002651727 92.17338111846601 10.17732414926645 C 0.0 **** -0.24
11927 H 69.25543026742689 92.05594736844044 10.383940331758719 H 0.0 **** 0.06
11928 H 68.0590772409346 92.59434667049892 9.180253505234138 H 0.0 **** 0.06
11929 H 67.74877371319134 92.84071153655624 10.91649413004183 H 0.0 **** 0.06
11930 H 67.702978693776 91.19954331404386 10.22735985064972 H 0.0 **** 0.06
11931 C 22.327798471828743 76.70703452810153 2.378869685534994 C 0.0 **** -0.24
11932 H 21.501325766376226 76.01336946789283 2.5349694889359284 H 0.0 **** 0.06
11933 H 22.23345147944417 77.54431150330097 3.0711286258531345 H 0.0 **** 0.06
11934 H 22.30309838095272 77.07641149105964 1.354555802105324 H 0.0 **** 0.06
11935 H 23.271935649414417 76.19246090859849 2.5577535976878494 H 0.0 **** 0.06
11936 C 4.365534058126457 108.05896415821097 87.9708233461041 C 0.0 **** -0.24
11937 H 3.7994982716100765 107.12957722957302 87.90571642402075 H 0.0 **** 0.06
11938 H 3.6869751496433594 108.88203314886192 88.19604044636864 H 0.0 **** 0.06
11939 H 4.864173152704893 108.2481635064504 87.02054333778115 H 0.0 **** 0.06
11940 H 5.111302790011635 107.97517177387466 88.76205868939321 H 0.0 **** 0.06
11941 C 73.95931919457517 78.83398651613919 45.06613638638359 C 0.0 **** -0.24
11942 H 73.23965832738857 79.61435284964406 44.81858215999124 H 0.0 **** 0.06
11943 H 74.50527383964375 78.54588926855443 44.16702235147807 H 0.0 **** 0.06
11944 H 73.43213266850111 77.96753890460319 45.46454237613466 H 0.0 **** 0.06
11945 H 74.659118073162 79.20892271743438 45.81170981423912 H 0.0 **** 0.06
11946 C 28.747645713398384 15.968699106924078 24.67634566251968 C 0.0 **** -0.24
11947 H 29.198829214677488 15.943721197353256 23.684159666344385 H 0.0 **** 0.06
11948 H 28.66454597565817 14.95224613984351 25.06179124831702 H 0.0 **** 0.06
11949 H 27.75644727581559 16.416955821036396 24.612682412735992 H 0.0 **** 0.06
11950 H 29.37253239185131 16.56211483803105 25.3441412190612 H 0.0 **** 0.06
11951 C 123.70911247470201 71.93095095362821 8.225997644597559 C 0.0 **** -0.24
11952 H 124.24084916202824 72.81409595307161 8.580870162706866 H 0.0 **** 0.06
11953 H 124.26592035743616 71.4787258666577 7.40396173040217 H 0.0 **** 0.06
11954 H 122.71743070151112 72.21954378740381 7.878309740209559 H 0.0 **** 0.06
11955 H 123.61488756886618 71.2127343054108 9.039681803143232 H 0.0 **** 0.06
11956 C 94.36393577021235 109.1719830920739 91.5158713094592 C 0.0 **** -0.24
11957 H 93.64186799379016 109.70723367838474 92.13286841754156 H 0.0 **** 0.06
11958 H 95.26408919888874 108.9752603835114 92.09737573390866 H 0.0 **** 0.06
11959 H 94.61841967633538 109.77849204785161 90.64627925736315 H 0.0 **** 0.06
11960 H 93.92976662345575 108.22801169152746 91.18581882887985 H 0.0 **** 0.06
11961 C 128.6107749063628 46.93134322494052 49.005720727802725 C 0.0 **** -0.24
11962 H 128.0444528029115 46.89647579558917 48.07489097821559 H 0.0 **** 0.06
11963 H 129.67620674316464 46.86504183004244 48.78437118500881 H 0.0 **** 0.06
11964 H 128.31885183554283 46.09380361119531 49.639668527372976 H 0.0 **** 0.06
11965 H 128.40402832651404 47.86802474898701 49.52178462964139 H 0.0 **** 0.06
11966 C 84.70763233914876 107.15665055300215 44.477514216768355 C 0.0 **** -0.24
11967 H 83.9424766451277 107.93119409598458 44.41758440567091 H 0.0 **** 0.06
11968 H 84.71651202442803 106.58351842308858 43.55084645750233 H 0.0 **** 0.06
11969 H 84.48796861797736 106.4934704478421 45.31379612474345 H 0.0 **** 0.06
11970 H 85.6829314425678 107.62050184134918 44.6283325423403 H 0.0 **** 0.06
11971 C 27.23788335408051 99.22718803301834 58.989300472879094 C 0.0 **** -0.24
11972 H 27.679867824019595 99.36273091564239 59.97674229999407 H 0.0 **** 0.06
11973 H 26.756979218413278 100.15374702738815 58.67702644778173 H 0.0 **** 0.06
11974 H 26.496711607034342 98.42839838808466 59.03067764880127 H 0.0 **** 0.06
11975 H 28.018109589979986 98.96285933431614 58.276212277493784 H 0.0 **** 0.06
11976 C 48.988958296172754 25.43708011632208 128.40179958914842 C 0.0 **** -0.24
11977 H 49.46054719103327 25.832590887497133 129.30144986507983 H 0.0 **** 0.06
11978 H 48.40864412398699 26.224706248896624 127.91988561665825 H 0.0 **** 0.06
11979 H 48.32851863045853 24.612778272240917 128.67040966124156 H 0.0 **** 0.06
11980 H 49.75706329924658 25.079180448269568 127.71549422205456 H 0.0 **** 0.06
11981 C 48.92878061108037 32.15665615754179 23.852251782723926 C 0.0 **** -0.24
11982 H 48.373266779074974 31.52014664340379 23.162623216718742 H 0.0 **** 0.06
11983 H 48.25400554727663 32.536946862964385 24.619170984835506 H 0.0 **** 0.06
11984 H 49.36341872157951 32.99259458022419 23.303741835689863 H 0.0 **** 0.06
11985 H 49.72400063690408 31.578149930120077 24.321387233039076 H 0.0 **** 0.06
11986 C 30.410884334711398 11.42001476600717 39.600299025811246 C 0.0 **** -0.24
11987 H 31.023340647827126 12.32202049111595 39.60892715398912 H 0.0 **** 0.06
11988 H 29.586844853578498 11.547224642736637 38.89817577742029 H 0.0 **** 0.06
11989 H 30.013051906109638 11.24116725841509 40.59869440769829 H 0.0 **** 0.06
11990 H 31.02132796270911 10.569666004156943 39.294004868305066 H 0.0 **** 0.06
11991 C 12.192111630503092 72.1677971530068 30.362333335554524 C 0.0 **** -0.24
11992 H 13.077652581467646 71.5948131465664 30.63611059087698 H 0.0 **** 0.06
11993 H 11.605712191233621 71.6043661506177 29.636691095796394 H 0.0 **** 0.06
11994 H 12.495241727405286 73.1195466507433 29.925536437483935 H 0.0 **** 0.06
11995 H 11.590011823555031 72.35156974094565 31.253038120941476 H 0.0 **** 0.06
11996 C 130.29617826222827 122.77582310534102 16.865212603692555 C 0.0 **** -0.24
11997 H 130.70941494925228 122.18785386323792 17.68530475218489 H 0.0 **** 0.06
11998 H 131.10903181728727 123.23695673266293 16.304516316904596 H 0.0 **** 0.06
11999 H 129.64419606157682 123.55153366712594 17.266665959322836 H 0.0 **** 0.06
12000 H 129.72164841934205 122.12498992124661 16.205357202626317 H 0.0 **** 0.06
12001 C 74.91506786036948 62.09399253487243 72.3201938931386 C 0.0 **** -0.24
12002 H 75.01802078074957 62.52709761389565 73.31474007685497 H 0.0 **** 0.06
12003 H 75.62680282563127 62.5675419887059 71.6426949486601 H 0.0 **** 0.06
12004 H 73.9011641894117 62.25709176937198 71.95585694344915 H 0.0 **** 0.06
12005 H 75.11635424080504 61.02308588493793 72.36810314641183 H 0.0 **** 0.06
12006 C 110.98805820101961 95.98399763595752 83.5592852433639 C 0.0 **** -0.24
12007 H 111.12472862379445 94.91743982666979 83.7375998531098 H 0.0 **** 0.06
12008 H 111.7582755099105 96.33741365869048 82.87292896250526 H 0.0 **** 0.06
12009 H 111.06673663102367 96.52342989323259 84.50241881526247 H 0.0 **** 0.06
12010 H 110.00437727997223 96.1563086753744 83.12232502851415 H 0.0 **** 0.06
12011 C 108.16173398297475 95.02325795108374 64.12238569962888 C 0.0 **** -0.24
12012 H 107.68669042570933 94.234269428201 63.53968493841141 H 0.0 **** 0.06
12013 H 107.90446062168378 94.90319270296729 65.17441335244685 H 0.0 **** 0.06
12014 H 107.8112651802365 95.99426584193782 63.770911907864615 H 0.0 **** 0.06
12015 H 109.24318028036303 94.96219953016023 64.00298213316297 H 0.0 **** 0.06
12016 C 102.48226967720711 83.9773004664383 20.863829807885153 C 0.0 **** -0.24
12017 H 101.43766871146539 84.01977115589705 21.172432367368884 H 0.0 **** 0.06
12018 H 103.05189736122759 83.39581004513582 21.58903369987671 H 0.0 **** 0.06
12019 H 102.88648102134755 84.98825087590717 20.811009983691086 H 0.0 **** 0.06
12020 H 102.55253380133604 83.50643364634493 19.88411619150967 H 0.0 **** 0.06
12021 C 42.63876079776371 95.9086590411555 85.84174748215366 C 0.0 **** -0.24
12022 H 41.89991262283681 96.67692292486362 86.07090131472116 H 0.0 **** 0.06
12023 H 42.640113303017785 95.7162202734835 84.76836357050703 H 0.0 **** 0.06
12024 H 42.38684371055058 94.99244597661786 86.37566307850754 H 0.0 **** 0.06
12025 H 43.62647663620368 96.25004395122703 86.15170593227856 H 0.0 **** 0.06
12026 C 130.5519748065095 44.79689962584166 9.701519931123585 C 0.0 **** -0.24
12027 H 131.61853190075786 44.7346373671796 9.917445479080982 H 0.0 **** 0.06
12028 H 130.13414303609775 43.79176409685695 9.642125766605261 H 0.0 **** 0.06
12029 H 130.4034965972212 45.308527635552494 8.750796287097558 H 0.0 **** 0.06
12030 H 130.05224130571509 45.35302440305776 10.494931017996464 H 0.0 **** 0.06
12031 C 115.35056095240193 15.276760082509952 117.04735360456758 C 0.0 **** -0.24
12032 H 114.29787962786898 15.552281803354447 117.10373827561631 H 0.0 **** 0.06
12033 H 115.60825488230253 14.647776477961713 117.90008626701814 H 0.0 **** 0.06
12034 H 115.96323687492227 16.177996866580543 117.06177324907125 H 0.0 **** 0.06
12035 H 115.53323605180063 14.728325479920272 116.1226196804204 H 0.0 **** 0.06
12036 C 107.70986155728477 69.44838013571679 67.89446398742547 C 0.0 **** -0.24
12037 H 107.72203564516565 70.48292812698409 67.55205094501497 H 0.0 **** 0.06
12038 H 106.87302318839393 69.30175428609799 68.57788400223026 H 0.0 **** 0.06
12039 H 108.64351384648633 69.22494876371708 68.41011625615226 H 0.0 **** 0.06
12040 H 107.59976377468082 68.78412354761893 67.03695995541182 H 0.0 **** 0.06
12041 C 71.14516853419086 107.7805623719563 118.34047393079022 C 0.0 **** -0.24
12042 H 70.41578551246161 107.36854652509423 119.03668491006746 H 0.0 **** 0.06
12043 H 71.35885932712699 107.04840950538373 117.56164345819558 H 0.0 **** 0.06
12044 H 72.06289692912168 108.02089479834285 118.87660763583281 H 0.0 **** 0.06
12045 H 70.74273591220407 108.68635588806045 117.88707062884163 H 0.0 **** 0.06
12046 C 14.316810091712796 60.949521745590175 116.28887869525632 C 0.0 **** -0.24
12047 H 14.58018504533868 61.971387170304126 116.01623947152412 H 0.0 **** 0.06
12048 H 13.232888911962561 60.85829444516577 116.35397008164512 H 0.0 **** 0.06
12049 H 14.760843365164249 60.70654441628642 117.25462451172152 H 0.0 **** 0.06
12050 H 14.695293365674218 60.26181857734977 115.53213549248248 H 0.0 **** 0.06
12051 C 81.48901608060083 47.291912245668755 82.07093371297213 C 0.0 **** -0.24
12052 H 81.04236536756909 47.580200207687255 83.02166741468855 H 0.0 **** 0.06
12053 H 81.40358838853763 46.213106669853346 81.94119512880927 H 0.0 **** 0.06
12054 H 82.5413319364553 47.57594136067098 82.06370387925968 H 0.0 **** 0.06
12055 H 80.97038566795922 47.798788923324025 81.25665179240427 H 0.0 **** 0.06
12056 C 34.1151254437886 117.38178588519273 14.154962389086677 C 0.0 **** -0.24
12057 H 33.47638120349008 117.31492594823322 15.035425897902172 H 0.0 **** 0.06
12058 H 35.135415878625594 117.61002118892542 14.462690396173315 H 0.0 **** 0.06
12059 H 33.74761905559788 118.17202991987845 13.499294054343324 H 0.0 **** 0.06
12060 H 34.10063290255607 116.43104312496705 13.622276152045089 H 0.0 **** 0.06
12061 C 111.80256835699277 49.747133976421324 43.686941277383596 C 0.0 **** -0.24
12062 H 111.87996599499866 49.74061964320515 44.77402159663583 H 0.0 **** 0.06
12063 H 110.77659934675904 49.97975989204174 43.397499785183726 H 0.0 **** 0.06
12064 H 112.07710081065727 48.76663376552702 43.2974175182201 H 0.0 **** 0.06
12065 H 112.47573543907868 50.50227505068365 43.280120000190806 H 0.0 **** 0.06
12066 C 90.64907512213406 102.82852898709928 77.25329006902467 C 0.0 **** -0.24
12067 H 90.42736310060363 102.31168629471942 76.319036389877 H 0.0 **** 0.06
12068 H 89.71997307728259 103.0264435082596 77.78772687333054 H 0.0 **** 0.06
12069 H 91.15272617765098 103.77036978480855 77.03727396796472 H 0.0 **** 0.06
12070 H 91.296224326187 102.20344584943174 77.86858548530728 H 0.0 **** 0.06
12071 C 105.37625085463388 40.06416732244409 101.3134916666531 C 0.0 **** -0.24
12072 H 106.22065925084264 39.38814809940558 101.44180320164125 H 0.0 **** 0.06
12073 H 104.8418351592607 40.161751149992455 102.25874177100212 H 0.0 **** 0.06
12074 H 104.7034361875014 39.66561554595489 100.55368878752031 H 0.0 **** 0.06
12075 H 105.73949276818684 41.04337847995549 100.99879596015842 H 0.0 **** 0.06
12076 C 23.051758273000488 122.11225423504271 115.96570031922573 C 0.0 **** -0.24
12077 H 23.420862514259333 122.89438133027673 115.30270959311781 H 0.0 **** 0.06
12078 H 22.663074770602492 122.563964720765 116.87932460642395 H 0.0 **** 0.06
12079 H 23.865776748153465 121.43145159265654 116.21307879401974 H 0.0 **** 0.06
12080 H 22.255099228098494 121.55969807994859 115.46676988641968 H 0.0 **** 0.06
12081 C 0.6711593890003655 103.89921052917514 124.9324266891999 C 0.0 **** -0.24
12082 H 0.923767521468406 104.04789998852813 125.98219239446374 H 0.0 **** 0.06
12083 H -0.07240626018382557 103.10500856267585 124.84681715611626 H 0.0 **** 0.06
12084 H 1.567771909788238 103.61788722821746 124.37892986805589 H 0.0 **** 0.06
12085 H 0.2655202162763608 104.82381058078583 124.52172962851878 H 0.0 **** 0.06
12086 C 48.391232192653376 50.44271687089713 62.37211650596208 C 0.0 **** -0.24
12087 H 49.435035784850754 50.725513903414594 62.51082629170892 H 0.0 **** 0.06
12088 H 47.95234491647747 50.18540768956774 63.336022312991844 H 0.0 **** 0.06
12089 H 48.33305936614403 49.58260306813605 61.70478400926652 H 0.0 **** 0.06
12090 H 47.84388785917167 51.279279678205455 61.935459396751725 H 0.0 **** 0.06
12091 C 98.02701651510702 48.881231111205764 19.19004677794355 C 0.0 **** -0.24
12092 H 98.22683958136787 48.5942363533639 18.157614103641293 H 0.0 **** 0.06
12093 H 97.05066391944504 49.36343321046951 19.2505223012624 H 0.0 **** 0.06
12094 H 98.79603367761644 49.574710908445795 19.52914823600915 H 0.0 **** 0.06
12095 H 98.03340319950794 47.99303813934364 19.82220336428705 H 0.0 **** 0.06
12096 C 95.58342249556574 33.374388429567205 72.57254511991108 C 0.0 **** -0.24
12097 H 95.89565697073664 33.309730182100054 73.61439172953199 H 0.0 **** 0.06
12098 H 95.67189758722458 32.39407932906829 72.1046929275925 H 0.0 **** 0.06
12099 H 96.22053370948635 34.08635957658481 72.04686373787374 H 0.0 **** 0.06
12100 H 94.54767053552285 33.70859734733045 72.52373245027647 H 0.0 **** 0.06
12101 C 37.702468317797795 58.498259320236144 93.44986158979813 C 0.0 **** -0.24
12102 H 38.69263487915382 58.912721322908055 93.63736854338154 H 0.0 **** 0.06
12103 H 37.63837423891469 58.16691528112601 92.41262119363287 H 0.0 **** 0.06
12104 H 36.94734920642593 59.26249389489345 93.63466183174279 H 0.0 **** 0.06
12105 H 37.532878847958926 57.65063380460492 94.11304392310015 H 0.0 **** 0.06
12106 C 44.148977835714845 3.194070851750066 129.8745699862987 C 0.0 **** -0.24
12107 H 44.419943465760994 4.055575783922123 130.48482349456486 H 0.0 **** 0.06
12108 H 43.064567803089204 3.15859864394184 129.75695520228132 H 0.0 **** 0.06
12109 H 44.49165729525774 2.280523984748541 130.36205687381408 H 0.0 **** 0.06
12110 H 44.61846832486229 3.280995615582114 128.8946132289295 H 0.0 **** 0.06
12111 C 75.88644047632516 73.48229748402163 83.50516508641344 C 0.0 **** -0.24
12112 H 75.91092849548971 74.20201713674395 82.68655928254526 H 0.0 **** 0.06
12113 H 75.44314466224864 72.54910539263331 83.15404978705665 H 0.0 **** 0.06
12114 H 75.28935059616947 73.88237572081742 84.32431130037493 H 0.0 **** 0.06
12115 H 76.90154691165361 73.29415586335816 83.85328728483586 H 0.0 **** 0.06
12116 C 84.48237379373654 24.784419665235177 9.35385465694604 C 0.0 **** -0.24
12117 H 85.51411615850517 25.129346917797058 9.421422022709251 H 0.0 **** 0.06
12118 H 84.32099050466834 23.97793495095481 10.069353312406047 H 0.0 **** 0.06
12119 H 84.28712121001888 24.420878435454135 8.345076850807871 H 0.0 **** 0.06
12120 H 83.80833399549167 25.61020002135478 9.578935878847307 H 0.0 **** 0.06
12121 C 91.54798794227158 28.190137480423545 75.86023973179378 C 0.0 **** -0.24
12122 H 91.6055180217713 28.69499984929947 74.89683605231887 H 0.0 **** 0.06
12123 H 91.30470958165243 28.91623051606615 76.63670484957551 H 0.0 **** 0.06
12124 H 92.50812022876214 27.72474959681145 76.0849698520025 H 0.0 **** 0.06
12125 H 90.77274682558914 27.42458463635686 75.82296314972417 H 0.0 **** 0.06
12126 C 101.46087027907966 12.855652967297942 103.75845625564727 C 0.0 **** -0.24
12127 H 101.94031148907477 13.09101204335991 102.8083906322214 H 0.0 **** 0.06
12128 H 101.98461395043324 13.36748344716068 104.56655876379199 H 0.0 **** 0.06
12129 H 101.4970329227016 11.77928665257707 103.92593246054906 H 0.0 **** 0.06
12130 H 100.42246828558147 13.185030676153133 103.73268695272202 H 0.0 **** 0.06
12131 C 21.51082653312818 3.55955661246054 123.30752634028045 C 0.0 **** -0.24
12132 H 21.362490385343676 2.590620216244531 123.78232736691436 H 0.0 **** 0.06
12133 H 22.25149511534309 3.4650938952768797 122.51172644863432 H 0.0 **** 0.06
12134 H 21.86366521579822 4.27676376203874 124.04860881696575 H 0.0 **** 0.06
12135 H 20.567302301154456 3.906852880795043 122.8864090165258 H 0.0 **** 0.06
12136 C 23.929735250021565 67.87239958763867 19.830254321650557 C 0.0 **** -0.24
12137 H 24.563005039307996 66.98460971921875 19.825889036999314 H 0.0 **** 0.06
12138 H 24.21921186565612 68.52930447514811 19.010482594204205 H 0.0 **** 0.06
12139 H 24.048956905045486 68.39761920108818 20.777939410914087 H 0.0 **** 0.06
12140 H 22.887680902647105 67.57544257745869 19.70816095872786 H 0.0 **** 0.06
12141 C 55.5532553038109 107.3408128034981 3.7028870053937055 C 0.0 **** -0.24
12142 H 56.35407238047598 106.76393862357796 4.165293373458496 H 0.0 **** 0.06
12143 H 54.83138354491143 106.66176023398671 3.2492690666303474 H 0.0 **** 0.06
12144 H 55.97194633528082 107.99264835518521 2.9358193875520726 H 0.0 **** 0.06
12145 H 55.05767583655512 107.94594287282044 4.461997047747502 H 0.0 **** 0.06
12146 C 1.8153656779832943 126.39167487142464 39.20489059412277 C 0.0 **** -0.24
12147 H 0.9754139897616199 127.07295114366019 39.34067082623977 H 0.0 **** 0.06
12148 H 2.747428071555703 126.91756129771778 39.41417195100212 H 0.0 **** 0.06
12149 H 1.8252334871580729 126.02737708631221 38.1777069643133 H 0.0 **** 0.06
12150 H 1.712667573441081 125.5481639442551 39.888763371990706 H 0.0 **** 0.06
12151 C 86.67389081736624 88.45052165306977 5.685220840208899 C 0.0 **** -0.24
12152 H 86.69534361437331 89.02090214552003 6.614407259261981 H 0.0 **** 0.06
12153 H 87.53211918100044 87.7783644113524 5.652141193127989 H 0.0 **** 0.06
12154 H 86.71469286602428 89.1351443489198 4.838071253031671 H 0.0 **** 0.06
12155 H 85.75367207443242 87.86782981856346 5.638240149989173 H 0.0 **** 0.06
12156 C 75.97835552190162 91.82349931045987 14.659206249387239 C 0.0 **** -0.24
12157 H 76.09086327933011 90.78204336068285 14.35943312568969 H 0.0 **** 0.06
12158 H 76.11143127007603 92.46814481396737 13.78930936139983 H 0.0 **** 0.06
12159 H 76.72860303140851 92.06852748319542 15.411084129003825 H 0.0 **** 0.06
12160 H 74.98257439803632 91.97580592490522 15.07482516788582 H 0.0 **** 0.06
12161 C 2.26985612084718 9.312395040273856 58.282549849433494 C 0.0 **** -0.24
12162 H 2.4290519701324342 10.385186454016292 58.1766126171966 H 0.0 **** 0.06
12163 H 3.2165568821562687 8.789519064448598 58.142439473115346 H 0.0 **** 0.06
12164 H 1.5546596093391258 8.975841213773123 57.53179159354242 H 0.0 **** 0.06
12165 H 1.8796827470103779 9.098591655403482 59.27700460086186 H 0.0 **** 0.06
12166 C 61.331177459069906 29.08598351708727 130.70747973891537 C 0.0 **** -0.24
12167 H 62.12791267923396 28.67878722952338 131.33025470720656 H 0.0 **** 0.06
12168 H 60.55517630904737 28.332529574663212 130.57083104285806 H 0.0 **** 0.06
12169 H 61.737760769967025 29.370830485702214 129.73730621730436 H 0.0 **** 0.06
12170 H 60.90346485316289 29.963528599932516 131.19393745687879 H 0.0 **** 0.06
12171 C 90.43988332938011 61.32672511195028 18.52851933190422 C 0.0 **** -0.24
12172 H 90.27653046347177 60.56648257738516 19.293199442433604 H 0.0 **** 0.06
12173 H 90.65486020097194 62.28214706468479 19.00691069416615 H 0.0 **** 0.06
12174 H 89.54493960196407 61.419783533179626 17.914064068464256 H 0.0 **** 0.06
12175 H 91.28213693969508 61.03567346395384 17.901298293890306 H 0.0 **** 0.06
12176 C 27.155110179596633 42.49340486400816 121.11847114732785 C 0.0 **** -0.24
12177 H 26.443548149352992 42.621733879715634 120.30284954002647 H 0.0 **** 0.06
12178 H 26.67088830174967 41.97438332592661 121.94530622916076 H 0.0 **** 0.06
12179 H 27.501989219367246 43.47061011097267 121.45492370932256 H 0.0 **** 0.06
12180 H 28.005154947447963 41.90641950029424 120.76923111425961 H 0.0 **** 0.06
12181 C 55.536877874173456 58.6259761448013 38.73233274115549 C 0.0 **** -0.24
12182 H 54.62952080591302 59.227180711835345 38.787764437009514 H 0.0 **** 0.06
12183 H 56.36644489331448 59.17903819585577 39.174966340568034 H 0.0 **** 0.06
12184 H 55.7625057801074 58.40465767462727 37.68933052045344 H 0.0 **** 0.06
12185 H 55.38842578500234 57.694216044331355 39.27772942063402 H 0.0 **** 0.06
12186 C 51.53228284788881 44.76905448949623 79.28816503666418 C 0.0 **** -0.24
12187 H 50.73985030277859 44.113663204208535 78.92491791850686 H 0.0 **** 0.06
12188 H 51.83536934822229 44.45207580959868 80.28618686770497 H 0.0 **** 0.06
12189 H 51.16622521525463 45.79467917002489 79.32758911432644 H 0.0 **** 0.06
12190 H 52.386505534808805 44.71261111459336 78.61330414109247 H 0.0 **** 0.06
12191 C 81.48281997263854 20.205495202504125 34.75047781682392 C 0.0 **** -0.24
12192 H 82.40501305840215 19.828771541306963 34.308057581097486 H 0.0 **** 0.06
12193 H 81.52724292099973 21.292289153666445 34.811082307874685 H 0.0 **** 0.06
12194 H 81.36458243003014 19.789227717804096 35.75095207447677 H 0.0 **** 0.06
12195 H 80.63566057931482 19.90993522248695 34.13116629830742 H 0.0 **** 0.06
12196 C 33.43771241103412 61.27121098009651 44.69776640329246 C 0.0 **** -0.24
12197 H 32.989296491474114 61.360492142672115 43.708764656725464 H 0.0 **** 0.06
12198 H 34.03283771750456 60.3591153863436 44.74601559911875 H 0.0 **** 0.06
12199 H 32.65016450083224 61.23031197038149 45.451121634972566 H 0.0 **** 0.06
12200 H 34.076074864085655 62.133573406868805 44.88618565217344 H 0.0 **** 0.06
12201 C 20.574759542382708 83.37015729107324 53.81249413498371 C 0.0 **** -0.24
12202 H 21.196421294425818 83.58444264951822 52.94284768244738 H 0.0 **** 0.06
12203 H 21.158531137442026 82.81487476941803 54.54749589396212 H 0.0 **** 0.06
12204 H 19.71410490375723 82.77487516893339 53.50590269230797 H 0.0 **** 0.06
12205 H 20.23054172253893 84.30661793224644 54.25292245319609 H 0.0 **** 0.06
12206 C 18.076924248909535 100.84048177744909 2.984535064109025 C 0.0 **** -0.24
12207 H 17.999293203705292 99.85295323516914 3.4400131668269864 H 0.0 **** 0.06
12208 H 18.703562753404498 100.78096147709034 2.0936831767895683 H 0.0 **** 0.06
12209 H 18.522183579010232 101.53479680439207 3.69624369295218 H 0.0 **** 0.06
12210 H 17.083228259895236 101.19150286694368 2.7068807367735417 H 0.0 **** 0.06
12211 C 31.59836672591365 28.907006882374134 97.15069430843488 C 0.0 **** -0.24
12212 H 31.867259075660996 27.909690201285514 97.49849856492604 H 0.0 **** 0.06
12213 H 31.13707503999396 28.83512189545573 96.16557298765501 H 0.0 **** 0.06
12214 H 32.495540924156984 29.523064603624675 97.08809377672371 H 0.0 **** 0.06
12215 H 30.895640066723473 29.358343387756918 97.84987810048763 H 0.0 **** 0.06
12216 C 74.90213497968048 29.904551680138468 123.78845652618581 C 0.0 **** -0.24
12217 H 74.54521170452877 29.727181832210142 124.80276079908151 H 0.0 **** 0.06
12218 H 75.32297677014635 30.907571319061084 123.72212983185702 H 0.0 **** 0.06
12219 H 74.07077662557089 29.81157259511297 123.08956765478774 H 0.0 **** 0.06
12220 H 75.66940654801115 29.170477166653598 123.53940130642347 H 0.0 **** 0.06
12221 C 31.102678563514225 94.36689433311057 14.270215050331068 C 0.0 **** -0.24
12222 H 30.196581334775317 94.23647030150894 14.862236905199996 H 0.0 **** 0.06
12223 H 30.834284138114953 94.67858903028414 13.260517397542788 H 0.0 **** 0.06
12224 H 31.647305859611215 93.42359659149585 14.22663797716055 H 0.0 **** 0.06
12225 H 31.73127913598848 95.12835674567904 14.731177898836922 H 0.0 **** 0.06
12226 C 107.90287900428666 28.795937535212857 23.462624565647907 C 0.0 **** -0.24
12227 H 107.29296202590967 28.67356950870728 24.35774847984826 H 0.0 **** 0.06
12228 H 107.56041687373869 28.105411751453353 22.69206094854797 H 0.0 **** 0.06
12229 H 108.94568952418274 28.58641287133598 23.702414362115064 H 0.0 **** 0.06
12230 H 107.81400145223711 29.819345272671264 23.09954221033719 H 0.0 **** 0.06
12231 C 39.47536760032435 18.290432691431704 41.55034541743555 C 0.0 **** -0.24
12232 H 38.84244578263066 18.779879480232864 42.29188192415958 H 0.0 **** 0.06
12233 H 40.330496753201075 18.928485848381968 41.32529470986296 H 0.0 **** 0.06
12234 H 38.89991935583021 18.118548202573493 40.640280279731485 H 0.0 **** 0.06
12235 H 39.826027074360354 17.336847403976606 41.94541315489735 H 0.0 **** 0.06
12236 C 30.741041622904874 67.53459190944213 89.16814341342743 C 0.0 **** -0.24
12237 H 29.863775459566142 67.25378092841694 89.75076741739673 H 0.0 **** 0.06
12238 H 30.50896767778616 68.4119747588274 88.56335372808499 H 0.0 **** 0.06
12239 H 31.024034710040212 66.70818247948247 88.51597023766482 H 0.0 **** 0.06
12240 H 31.565336063521755 67.76520667465445 89.8420543140951 H 0.0 **** 0.06
12241 C 104.05403876493955 125.73117330258705 42.42972010668159 C 0.0 **** -0.24
12242 H 104.67581134303668 125.53012894617103 43.302801181953555 H 0.0 **** 0.06
12243 H 104.29827702933676 126.7150540248199 42.030062972451375 H 0.0 **** 0.06
12244 H 103.00348488166253 125.70580340911846 42.72008609197108 H 0.0 **** 0.06
12245 H 104.23927983496526 124.97232664355415 41.66933732331487 H 0.0 **** 0.06
12246 C 8.202753944283302 123.83126920710079 57.177201193214415 C 0.0 **** -0.24
12247 H 7.875612153600173 124.03183750515865 58.19766535421779 H 0.0 **** 0.06
12248 H 8.001160393032023 122.78936216284686 56.92924313628643 H 0.0 **** 0.06
12249 H 9.272955980357096 124.02473970087775 57.09527246510248 H 0.0 **** 0.06
12250 H 7.662575519654808 124.4807652142637 56.487924244817336 H 0.0 **** 0.06
12251 C 17.216596396169194 118.57868226454625 79.51831746545156 C 0.0 **** -0.24
12252 H 17.79989811174204 119.29097692631976 80.10208703406477 H 0.0 **** 0.06
12253 H 16.17174481899127 118.89175008358563 79.5043069754903 H 0.0 **** 0.06
12254 H 17.29427247135456 117.58973619238 79.96962616508026 H 0.0 **** 0.06
12255 H 17.599756965058504 118.54407484361026 78.49835384475153 H 0.0 **** 0.06
12256 C 45.95982292424489 14.884280414405794 7.3417088496440215 C 0.0 **** -0.24
12257 H 45.69255508267757 14.31268012410905 6.452774378914853 H 0.0 **** 0.06
12258 H 46.05979401752813 14.209397682222118 8.191830341900129 H 0.0 **** 0.06
12259 H 45.1813046784071 15.617841158592597 7.549909267984276 H 0.0 **** 0.06
12260 H 46.90678242516421 15.397671366827296 7.171635435542157 H 0.0 **** 0.06
12261 C 35.78325173555015 47.88821515163266 92.46151830909014 C 0.0 **** -0.24
12262 H 34.883283111266145 47.40313269606532 92.08329222920966 H 0.0 **** 0.06
12263 H 35.95314303053579 47.582927801273286 93.49448205763116 H 0.0 **** 0.06
12264 H 35.65854075765309 48.97059142429441 92.41897079770544 H 0.0 **** 0.06
12265 H 36.63779870326078 47.59724807894202 91.85069255026096 H 0.0 **** 0.06
12266 C 7.904264550278356 37.4166873566063 53.09265074555384 C 0.0 **** -0.24
12267 H 7.185511611876052 37.46224296203792 53.9110524746238 H 0.0 **** 0.06
12268 H 8.654047516836954 38.19597706357058 53.22412108343221 H 0.0 **** 0.06
12269 H 7.384318383505445 37.5673917685607 52.14567042366792 H 0.0 **** 0.06
12270 H 8.38956272486655 36.4407057278392 53.08890777892617 H 0.0 **** 0.06
12271 C 9.759646586179457 44.54594893393582 62.81893286804265 C 0.0 **** -0.24
12272 H 9.755326598377223 45.16663586940152 61.92333725946895 H 0.0 **** 0.06
12273 H 9.413900559800709 43.54351998029456 62.56747249000253 H 0.0 **** 0.06
12274 H 9.09729770370484 44.98281202539238 63.56652773593379 H 0.0 **** 0.06
12275 H 10.77303661489654 44.49177036231387 63.2179928384335 H 0.0 **** 0.06
12276 C 130.23301721209816 56.86541763720382 43.26126941791398 C 0.0 **** -0.24
12277 H 130.58914261802386 57.13645544986477 44.25551571976115 H 0.0 **** 0.06
12278 H 129.7403188878219 57.72402031946328 42.804903039304634 H 0.0 **** 0.06
12279 H 129.5258147100734 56.03956052008479 43.34087554722447 H 0.0 **** 0.06
12280 H 131.0789086557433 56.561408169184716 42.644470102928494 H 0.0 **** 0.06
12281 C 36.125640026488455 105.8234939650256 107.36526686629972 C 0.0 **** -0.24
12282 H 35.54492844207846 106.4581074623373 108.03517750967507 H 0.0 **** 0.06
12283 H 35.663613363041904 104.83759409251054 107.30873099559065 H 0.0 **** 0.06
12284 H 37.14166858421163 105.72735526464363 107.74647641666834 H 0.0 **** 0.06
12285 H 36.150463628190835 106.27162337482281 106.37165561237538 H 0.0 **** 0.06
12286 C 12.004607777163393 57.41965920202233 1.3604915702542826 C 0.0 **** -0.24
12287 H 11.191719813054718 56.757255355797554 1.6552231066212357 H 0.0 **** 0.06
12288 H 12.930289113828131 57.09225413144071 1.8357468233390648 H 0.0 **** 0.06
12289 H 11.77471790159743 58.437627640138714 1.6748502255168773 H 0.0 **** 0.06
12290 H 12.122180602986361 57.390924034287536 0.277346900152196 H 0.0 **** 0.06
12291 C 34.594920101055884 105.19792994068116 76.80037479394107 C 0.0 **** -0.24
12292 H 34.108152877743045 106.0358971461325 76.3018759712233 H 0.0 **** 0.06
12293 H 33.94121436438615 104.80933910450936 77.58092294289617 H 0.0 **** 0.06
12294 H 35.53244319955617 105.53339472815509 77.24346538257586 H 0.0 **** 0.06
12295 H 34.798127158288 104.41184895758411 76.07216937806194 H 0.0 **** 0.06
12296 C 77.7178263650562 89.5087936866928 17.06334955942316 C 0.0 **** -0.24
12297 H 78.43542672488923 90.04684947153632 16.444450430829818 H 0.0 **** 0.06
12298 H 76.71726064126915 89.62834461720655 16.647315546676708 H 0.0 **** 0.06
12299 H 77.73989979173012 89.91012550434857 18.076530690786683 H 0.0 **** 0.06
12300 H 77.97812329007141 88.45112083735208 17.08489152858334 H 0.0 **** 0.06
12301 C 63.64423872145268 72.38921880761848 107.26874190050944 C 0.0 **** -0.24
12302 H 63.15753073558133 71.6563532681279 107.9127216671492 H 0.0 **** 0.06
12303 H 64.23334784643725 73.07487897533761 107.87828687646646 H 0.0 **** 0.06
12304 H 62.88806255394525 72.94895622393832 106.71928850225629 H 0.0 **** 0.06
12305 H 64.2992487964642 71.87457897126009 106.56449108685587 H 0.0 **** 0.06
12306 C 123.71680668417847 6.661803988874794 129.66082474083223 C 0.0 **** -0.24
12307 H 123.22442427636751 7.579832528157894 129.98259278073365 H 0.0 **** 0.06
12308 H 124.77878727162975 6.71541629670989 129.90112130699967 H 0.0 **** 0.06
12309 H 123.59299347677056 6.542683504304236 128.58404429973862 H 0.0 **** 0.06
12310 H 123.26993764258727 5.810233787478893 130.17458028670282 H 0.0 **** 0.06
12311 C 65.12688687431128 75.15262035355642 100.08762753381784 C 0.0 **** -0.24
12312 H 64.9918347990102 74.6724106256426 99.11831486966379 H 0.0 **** 0.06
12313 H 64.67197093700997 74.53732244062854 100.86392866258096 H 0.0 **** 0.06
12314 H 64.6517925315048 76.13405548521486 100.07618327629491 H 0.0 **** 0.06
12315 H 66.19216720183884 75.2671907433638 100.29077767940636 H 0.0 **** 0.06
12316 C 30.399253109405244 114.1472652146316 41.45112274052417 C 0.0 **** -0.24
12317 H 29.47771383768363 114.35426920876955 41.99538205186602 H 0.0 **** 0.06
12318 H 30.767878163538732 115.06731904668572 40.99683646294481 H 0.0 **** 0.06
12319 H 30.202634778985242 113.41069665592744 40.671222404097506 H 0.0 **** 0.06
12320 H 31.147615261737236 113.75636629281144 42.13918922695987 H 0.0 **** 0.06
12321 C 31.137834626022133 25.71375584380138 85.53205354992105 C 0.0 **** -0.24
12322 H 31.292174821657554 25.873865851016035 84.46506322696032 H 0.0 **** 0.06
12323 H 31.697064459468216 26.460962650854356 86.09569038897186 H 0.0 **** 0.06
12324 H 31.485918744316564 24.717432166246226 85.80367280126053 H 0.0 **** 0.06
12325 H 30.07633007056298 25.802870212412245 85.76280486804342 H 0.0 **** 0.06
12326 C 63.12174248393413 16.02769144574816 44.870169085883155 C 0.0 **** -0.24
12327 H 63.7761632348348 15.543419859905867 44.145322214883066 H 0.0 **** 0.06
12328 H 62.669807824638724 15.27249638526743 45.512696840196554 H 0.0 **** 0.06
12329 H 62.33884098218189 16.573775108654644 44.344254339573205 H 0.0 **** 0.06
12330 H 63.70354453307618 16.721348478637225 45.47835560880769 H 0.0 **** 0.06
12331 C 119.11917915027192 86.39475249315112 10.790620491627635 C 0.0 **** -0.24
12332 H 118.90477522035212 87.00371858508768 11.670040664279739 H 0.0 **** 0.06
12333 H 118.4994529765206 86.72797130900497 9.958075497698033 H 0.0 **** 0.06
12334 H 118.89925872433759 85.35013164185742 11.01209234862624 H 0.0 **** 0.06
12335 H 120.17046494695404 86.49698637235159 10.526057191198674 H 0.0 **** 0.06
12336 C 18.257380991429173 103.19058613467064 104.0288826669726 C 0.0 **** -0.24
12337 H 19.276283360973878 102.94177929867527 103.73331617440624 H 0.0 **** 0.06
12338 H 17.694030564864335 103.51533965080904 103.15371642207072 H 0.0 **** 0.06
12339 H 18.278762914672114 103.9925975372488 104.76590228991813 H 0.0 **** 0.06
12340 H 17.77988629219442 102.31133138018004 104.46266074728254 H 0.0 **** 0.06
12341 C 34.42417566349798 68.21633356900405 52.320696414553254 C 0.0 **** -0.24
12342 H 33.981116091536194 67.80126241206634 51.41487652319549 H 0.0 **** 0.06
12343 H 35.233670627081096 67.56740149009008 52.658114034780226 H 0.0 **** 0.06
12344 H 33.66410681308105 68.28338508081178 53.09875481695977 H 0.0 **** 0.06
12345 H 34.81822746216312 69.2098888437961 52.109527039238316 H 0.0 **** 0.06
12346 C 107.3821698888197 126.37823668115902 102.61937591518009 C 0.0 **** -0.24
12347 H 108.3390408794951 126.8689073883749 102.79960819695363 H 0.0 **** 0.06
12348 H 106.57047932414523 127.0596175319781 102.87416019513844 H 0.0 **** 0.06
12349 H 107.31211803377141 125.4823300357651 103.23568951279577 H 0.0 **** 0.06
12350 H 107.3088020412603 126.10255140842943 101.56674619281756 H 0.0 **** 0.06
12351 C 3.5493367501330653 86.67871608612467 118.05795297325153 C 0.0 **** -0.24
12352 H 2.5296329941690026 86.66183846942448 118.44404483310394 H 0.0 **** 0.06
12353 H 4.155922225472011 87.3516675266759 118.66352944036952 H 0.0 **** 0.06
12354 H 3.540047250066184 87.02612982803919 117.02438250163031 H 0.0 **** 0.06
12355 H 3.968435239473987 85.67349638819223 118.09963355031024 H 0.0 **** 0.06
12356 C 16.773205805725972 19.73300680818926 61.37691400707482 C 0.0 **** -0.24
12357 H 15.899510808182374 20.37250944647778 61.50849281013538 H 0.0 **** 0.06
12358 H 17.203866120778123 19.906619224775937 60.390365003997516 H 0.0 **** 0.06
12359 H 16.475005753831947 18.688067090623775 61.464676236796265 H 0.0 **** 0.06
12360 H 17.51241925463423 19.966369951655878 62.14287781921547 H 0.0 **** 0.06
12361 C 79.10691589461727 34.729231664128235 126.91765787058718 C 0.0 **** -0.24
12362 H 79.67484829709434 35.13608386174161 127.75509301212172 H 0.0 **** 0.06
12363 H 78.07668411501385 34.55532130516258 127.22903090001559 H 0.0 **** 0.06
12364 H 79.55520591458593 33.78853700632081 126.59880828740177 H 0.0 **** 0.06
12365 H 79.12170657291206 35.43833227746893 126.09026316495788 H 0.0 **** 0.06
12366 C 3.255509778690012 63.12767255936879 79.29407496454452 C 0.0 **** -0.24
12367 H 3.2880865300655486 62.12956500561074 78.85470307134011 H 0.0 **** 0.06
12368 H 4.141230862119738 63.28078191422688 79.91144131645511 H 0.0 **** 0.06
12369 H 2.361670824978969 63.22409692067467 79.90915272474061 H 0.0 **** 0.06
12370 H 3.2330695483548375 63.87251446107811 78.49900301202386 H 0.0 **** 0.06
12371 C 67.33357530348756 43.56252854644274 107.27521760882482 C 0.0 **** -0.24
12372 H 67.74225357121087 43.30015013153359 106.29991096293381 H 0.0 **** 0.06
12373 H 67.77518252116657 44.50061587655051 107.61418338565717 H 0.0 **** 0.06
12374 H 67.56544858239933 42.773206039612724 107.99057713840362 H 0.0 **** 0.06
12375 H 66.25235782981525 43.676347291811275 107.19763841060686 H 0.0 **** 0.06
12376 C 105.81118536914187 114.14603603891774 78.7108061961319 C 0.0 **** -0.24
12377 H 105.07012827822228 114.11841700877412 77.91198704053161 H 0.0 **** 0.06
12378 H 106.38613607249978 113.21894651367032 78.70530329411272 H 0.0 **** 0.06
12379 H 105.30620735675073 114.2547371293418 79.67049454857542 H 0.0 **** 0.06
12380 H 106.48209996581467 114.99064719413016 78.5555868632525 H 0.0 **** 0.06
12381 C 50.76234447494461 47.46348066892328 20.380828840008064 C 0.0 **** -0.24
12382 H 50.452377281724566 46.91260388738163 19.492615689487486 H 0.0 **** 0.06
12383 H 51.331006732574366 46.80505742206935 21.037162985350655 H 0.0 **** 0.06
12384 H 49.88158883480517 47.82995600764275 20.906963545370928 H 0.0 **** 0.06
12385 H 51.38574740003129 48.30779963588063 20.084344746421266 H 0.0 **** 0.06
12386 C 97.51612013501867 67.71066799109803 6.367454053293045 C 0.0 **** -0.24
12387 H 98.00037697194847 66.99053878796741 5.708040142318964 H 0.0 **** 0.06
12388 H 96.44745478929393 67.50089052752895 6.411559136922335 H 0.0 **** 0.06
12389 H 97.67470734564647 68.71881552554191 5.983984183947399 H 0.0 **** 0.06
12390 H 97.9433149845426 67.6313997145881 7.367667346667446 H 0.0 **** 0.06
12391 C 96.43486606565472 108.26756862812309 34.83084223637252 C 0.0 **** -0.24
12392 H 96.08160840528609 107.29834418942396 35.18538501565331 H 0.0 **** 0.06
12393 H 97.42617180047012 108.15336178222756 34.39200147047012 H 0.0 **** 0.06
12394 H 96.48448869935046 108.96342499389833 35.6684829674044 H 0.0 **** 0.06
12395 H 95.74535410817697 108.65191296590271 34.07928109185181 H 0.0 **** 0.06
12396 C 62.75106411919033 0.0153624890969013 122.16312469593595 C 0.0 **** -0.24
12397 H 63.54235669878396 0.049982958312568826 122.91231157208375 H 0.0 **** 0.06
12398 H 63.19448249520923 0.019829875171694766 121.16637408993597 H 0.0 **** 0.06
12399 H 62.104435111111684 0.8848196643679671 122.2779139327098 H 0.0 **** 0.06
12400 H 62.164636238964164 -0.8935553401959169 122.29625309619712 H 0.0 **** 0.06
12401 C 96.80749995122352 93.58757081863413 115.41274569338975 C 0.0 **** -0.24
12402 H 96.37709528521752 94.58744457872253 115.36047968113542 H 0.0 **** 0.06
12403 H 96.33271991038325 93.02933935999204 116.22162158064654 H 0.0 **** 0.06
12404 H 97.87798718428917 93.66193355044446 115.60213865812386 H 0.0 **** 0.06
12405 H 96.6395830331397 93.07040356313506 114.46764545997928 H 0.0 **** 0.06
12406 C 53.87967536958848 17.808043721431623 116.42671292477343 C 0.0 **** -0.24
12407 H 53.2259680482792 17.917018001759125 115.56128365667269 H 0.0 **** 0.06
12408 H 54.10360141292473 18.79279137862224 116.83817945859892 H 0.0 **** 0.06
12409 H 54.806570874452845 17.321996994248067 116.12284658930369 H 0.0 **** 0.06
12410 H 53.38142708523719 17.202078413763473 117.18365293529999 H 0.0 **** 0.06
12411 C 31.132483225663407 45.77435936890432 61.0709785552486 C 0.0 **** -0.24
12412 H 31.834255995921808 46.50335391536646 60.666309090237064 H 0.0 **** 0.06
12413 H 30.898968639575685 46.0299621301482 62.1045455038776 H 0.0 **** 0.06
12414 H 31.580344790637014 44.78122615897139 61.03427810131029 H 0.0 **** 0.06
12415 H 30.218078219360677 45.782765918291965 60.47857393780971 H 0.0 **** 0.06
12416 C 121.16873579608892 91.40957442746091 98.49098741080127 C 0.0 **** -0.24
12417 H 121.66456549896944 91.77687714358066 99.38939883040706 H 0.0 **** 0.06
12418 H 120.66680621807839 90.46699352475278 98.71129505110787 H 0.0 **** 0.06
12419 H 121.90976435147218 91.2524867943412 97.70645335040984 H 0.0 **** 0.06
12420 H 120.43511334556061 92.14262487618731 98.15589399790474 H 0.0 **** 0.06
12421 C 97.75447460350138 7.285414538144707 20.814699445019272 C 0.0 **** -0.24
12422 H 97.83194558005982 7.869930626445665 21.730579115120662 H 0.0 **** 0.06
12423 H 96.99091488938585 7.721381691670629 20.16926179352612 H 0.0 **** 0.06
12424 H 97.47938070084568 6.2600922922923985 21.060245895093217 H 0.0 **** 0.06
12425 H 98.71409422103038 7.290926908656587 20.296949195034102 H 0.0 **** 0.06
12426 C 95.23726224197625 21.974421815970594 115.43013320364837 C 0.0 **** -0.24
12427 H 96.22857426355903 21.53245703855879 115.33768323970735 H 0.0 **** 0.06
12428 H 94.5487599642879 21.238388578180924 115.84613464266043 H 0.0 **** 0.06
12429 H 94.8858380586801 22.287325611914497 114.44679768525178 H 0.0 **** 0.06
12430 H 95.28667117446771 22.84080881283294 116.0907525161773 H 0.0 **** 0.06
12431 C 111.53171034576455 14.57273603030237 111.87574907417144 C 0.0 **** -0.24
12432 H 112.17878927408997 13.703543761345003 111.99389361793634 H 0.0 **** 0.06
12433 H 110.71397671774952 14.327990391247155 111.19660634122343 H 0.0 **** 0.06
12434 H 112.10937507936575 15.401069146900728 111.46452380753054 H 0.0 **** 0.06
12435 H 111.12621083349116 14.857911994189202 112.84638045239758 H 0.0 **** 0.06
12436 C 21.7501433954248 130.39687507905526 50.978724534948924 C 0.0 **** -0.24
12437 H 22.364911959617814 131.14238451779605 51.483690665670395 H 0.0 **** 0.06
12438 H 22.391734621657804 129.63071386489767 50.54471750671124 H 0.0 **** 0.06
12439 H 21.17163150755033 130.87734258352313 50.18951261287566 H 0.0 **** 0.06
12440 H 21.07112434839297 129.9386198184434 51.69806989222792 H 0.0 **** 0.06
12441 C 92.20814844206761 78.6263066443308 117.52731746626446 C 0.0 **** -0.24
12442 H 92.62511632798089 78.00200160648765 118.31760126030863 H 0.0 **** 0.06
12443 H 92.26127385660935 78.09346833892786 116.5774771918592 H 0.0 **** 0.06
12444 H 92.77905021095023 79.5522952440365 117.45714079864132 H 0.0 **** 0.06
12445 H 91.16809618639411 78.85762361870069 117.75734188646146 H 0.0 **** 0.06
12446 C 111.20627778765535 123.01950991144753 112.26290489685823 C 0.0 **** -0.24
12447 H 110.30679121012618 122.4198063652272 112.40046578325216 H 0.0 **** 0.06
12448 H 111.70425624204857 123.15314431567444 113.22312558050432 H 0.0 **** 0.06
12449 H 110.9335828433242 123.99367913345228 111.85592293873238 H 0.0 **** 0.06
12450 H 111.87920393946013 122.51197033848706 111.57186984888865 H 0.0 **** 0.06
12451 C 59.91472898662764 45.91931599690689 69.87452908803019 C 0.0 **** -0.24
12452 H 59.33462883557392 45.452824022010674 69.07761341904921 H 0.0 **** 0.06
12453 H 59.305618575771135 46.67223665934124 70.3735966084616 H 0.0 **** 0.06
12454 H 60.801571538406634 46.38962316416343 69.45072030908268 H 0.0 **** 0.06
12455 H 60.21596704667134 45.15952350380171 70.59556893329633 H 0.0 **** 0.06
12456 C 72.78134574711646 71.74856688613758 25.210506723907315 C 0.0 **** -0.24
12457 H 72.94886800541376 72.7847326008066 24.918756312254544 H 0.0 **** 0.06
12458 H 71.74292591677694 71.47957805587745 25.015376585704104 H 0.0 **** 0.06
12459 H 72.9934418744402 71.63176715259324 26.273885112483697 H 0.0 **** 0.06
12460 H 73.44079012530781 71.09800824090824 24.63525540363574 H 0.0 **** 0.06
12461 C 14.555974986709316 46.63555532253724 7.985179921896204 C 0.0 **** -0.24
12462 H 13.832025707377554 46.33336201478767 8.741554883889108 H 0.0 **** 0.06
12463 H 15.188665035005911 45.786474640967754 7.727197846723982 H 0.0 **** 0.06
12464 H 15.173391265835448 47.44401178242241 8.376422490758202 H 0.0 **** 0.06
12465 H 14.028544982853674 46.979475446448504 7.095139451539552 H 0.0 **** 0.06
12466 C 75.0135876028886 36.43668516876218 25.03053298050409 C 0.0 **** -0.24
12467 H 75.69112160677025 36.48076057178446 24.178224665309955 H 0.0 **** 0.06
12468 H 75.5312575404879 35.995544233937494 25.88333312066416 H 0.0 **** 0.06
12469 H 74.14729569814563 35.82645402784546 24.77509461313761 H 0.0 **** 0.06
12470 H 74.68495594270166 37.44408399108124 25.286433991551604 H 0.0 **** 0.06
12471 C 18.980716114336502 37.15457114860945 113.88983263359185 C 0.0 **** -0.24
12472 H 19.439791306367113 37.76307305690872 113.11119483557903 H 0.0 **** 0.06
12473 H 19.446534849273434 37.37899233714094 114.84941197284482 H 0.0 **** 0.06
12474 H 19.120203087998362 36.09879321358093 113.65517572139456 H 0.0 **** 0.06
12475 H 17.91427604851691 37.3762569387595 113.94200087398715 H 0.0 **** 0.06
12476 C 65.72431959889438 27.926782396997453 126.32270466323027 C 0.0 **** -0.24
12477 H 65.31176429653485 28.18474349905736 127.29784446668938 H 0.0 **** 0.06
12478 H 66.21264330451027 28.80094566882994 125.89192977169634 H 0.0 **** 0.06
12479 H 64.92030006497139 27.59769749873088 125.66333809816987 H 0.0 **** 0.06
12480 H 66.45098393289246 27.122074580656033 126.43687022349687 H 0.0 **** 0.06
12481 C 111.5350448822669 95.15561002747678 61.928613596866086 C 0.0 **** -0.24
12482 H 110.96660056617567 94.31121075589238 62.31784922424555 H 0.0 **** 0.06
12483 H 112.55837281231335 94.84122732615863 61.721374643729916 H 0.0 **** 0.06
12484 H 111.54362852226306 95.95841899582176 62.6667847340494 H 0.0 **** 0.06
12485 H 111.07129721273515 95.51297151459835 61.009442605944116 H 0.0 **** 0.06
12486 C 89.7980800099107 32.67740232989388 34.32116517734709 C 0.0 **** -0.24
12487 H 89.28588242086414 33.40303037287407 34.953982775025715 H 0.0 **** 0.06
12488 H 90.33769011392543 33.20158571768843 33.53195467291332 H 0.0 **** 0.06
12489 H 89.06590674129085 32.00497639772311 33.87512135771485 H 0.0 **** 0.06
12490 H 90.50083749100452 32.1020843723571 34.92275770201868 H 0.0 **** 0.06
12491 C 1.8575183177516124 17.069017274429804 106.58975122157037 C 0.0 **** -0.24
12492 H 2.6850657940123313 16.380947082538512 106.76104345147267 H 0.0 **** 0.06
12493 H 2.164662700171931 18.080701554705087 106.85917439308297 H 0.0 **** 0.06
12494 H 1.0055627469151034 16.773049032579465 107.20087388300007 H 0.0 **** 0.06
12495 H 1.5760000133119263 17.04327875271374 105.53697562784066 H 0.0 **** 0.06
12496 C 99.49866905769179 23.199135382533 46.0797889946895 C 0.0 **** -0.24
12497 H 100.43241688415277 23.377637156556297 46.613497351674965 H 0.0 **** 0.06
12498 H 98.6667939478935 23.227320759365433 46.783814474358934 H 0.0 **** 0.06
12499 H 99.53582149712771 22.2201822788833 45.60038617023 H 0.0 **** 0.06
12500 H 99.36058242745712 23.96970111036314 45.321936133172116 H 0.0 **** 0.06
12501 C 72.59083383979535 54.60676459451753 1.0833357187868593 C 0.0 **** -0.24
12502 H 72.34665390708784 55.422576333752716 0.40294477502598447 H 0.0 **** 0.06
12503 H 73.6682691146982 54.43970771592251 1.0772746109838174 H 0.0 **** 0.06
12504 H 72.08038805722859 53.69913206097431 0.7598209467376762 H 0.0 **** 0.06
12505 H 72.2682239395372 54.86442962039473 2.0914344141731434 H 0.0 **** 0.06
12506 C 115.91571247446095 2.3753508103625904 88.38865971879795 C 0.0 **** -0.24
12507 H 116.97105761271524 2.139536920427844 88.25241395494481 H 0.0 **** 0.06
12508 H 115.76039929855833 2.7764847764115927 89.38992481761562 H 0.0 **** 0.06
12509 H 115.32196499036397 1.469240077117007 88.26275575603074 H 0.0 **** 0.06
12510 H 115.61055393922337 3.114678397283683 87.64877499513409 H 0.0 **** 0.06
12511 C 79.42089795585383 122.39753803274277 98.34258228620425 C 0.0 **** -0.24
12512 H 80.26786727970222 121.87643848464228 98.7899029152324 H 0.0 **** 0.06
12513 H 78.90381020622522 122.97388544281898 99.10969139623839 H 0.0 **** 0.06
12514 H 78.73437787734815 121.66868095575143 97.9109886663833 H 0.0 **** 0.06
12515 H 79.77842483055213 123.06818429060252 97.56185150926078 H 0.0 **** 0.06
12516 C 110.11530532465045 14.336843255274744 94.78996278664998 C 0.0 **** -0.24
12517 H 110.30961397807488 13.316312716634343 94.4599309097843 H 0.0 **** 0.06
12518 H 109.46511784010193 14.3180495405216 95.66535902512436 H 0.0 **** 0.06
12519 H 109.62893960512434 14.891294293890383 93.9877216309723 H 0.0 **** 0.06
12520 H 111.05649130000393 14.82087699670734 95.04725768924793 H 0.0 **** 0.06
12521 C 56.89946581380609 106.5191429369888 66.36272844267768 C 0.0 **** -0.24
12522 H 57.1606547734379 107.5703299516676 66.24062742586563 H 0.0 **** 0.06
12523 H 57.06967205772811 105.99175823440355 65.42440832207939 H 0.0 **** 0.06
12524 H 55.84884750724666 106.43654019598578 66.64116413242539 H 0.0 **** 0.06
12525 H 57.51766784348757 106.08004598859836 67.1454465039786 H 0.0 **** 0.06
12526 C 23.959453199285605 12.559364994230116 97.59011029958441 C 0.0 **** -0.24
12527 H 23.986535781658972 11.479926214176768 97.742917331179 H 0.0 **** 0.06
12528 H 22.9343218550556 12.915084388503676 97.69105029285998 H 0.0 **** 0.06
12529 H 24.329649134354895 12.794145579826807 96.59327310626026 H 0.0 **** 0.06
12530 H 24.58851303638187 13.047318431462866 98.33576419374793 H 0.0 **** 0.06
12531 C 83.81728921382283 22.462298351168045 24.083202913394757 C 0.0 **** -0.24
12532 H 83.22531455192579 21.988884005526074 23.3004224321661 H 0.0 **** 0.06
12533 H 83.15844573749398 22.788125324184136 24.888934011134836 H 0.0 **** 0.06
12534 H 84.34259864614992 23.32376614075295 23.67109770042447 H 0.0 **** 0.06
12535 H 84.54134393595372 21.74672121449308 24.472271759319085 H 0.0 **** 0.06
12536 C 1.3560166710877297 24.792467708112213 103.7659807905403 C 0.0 **** -0.24
12537 H 1.6283736499020733 24.353521750160297 102.80616643799733 H 0.0 **** 0.06
12538 H 2.18007255776223 25.405796942399633 104.13136093712568 H 0.0 **** 0.06
12539 H 1.1478127985873243 23.998355323520997 104.4826118709229 H 0.0 **** 0.06
12540 H 0.4675130237280314 25.41323956231861 103.64243261025405 H 0.0 **** 0.06
12541 C 39.481262144153305 48.21288603478215 39.21263881262723 C 0.0 **** -0.24
12542 H 38.96646020381752 47.309120257318455 38.884843272207206 H 0.0 **** 0.06
12543 H 40.1557177511655 48.550856190451356 38.426030101418576 H 0.0 **** 0.06
12544 H 40.052846371143474 47.99818389652686 40.11494190406455 H 0.0 **** 0.06
12545 H 38.747909293115754 48.99148871010644 39.42302643126908 H 0.0 **** 0.06
12546 C 47.450857615710845 37.0094985578408 27.248221418849752 C 0.0 **** -0.24
12547 H 47.89280773761715 37.17101893029178 26.26504965108336 H 0.0 **** 0.06
12548 H 47.39946041042015 37.95821953575293 27.782692482720563 H 0.0 **** 0.06
12549 H 48.064010753142554 36.30641615908057 27.811342897980666 H 0.0 **** 0.06
12550 H 46.44558660613512 36.6038605060473 27.131741934915453 H 0.0 **** 0.06
12551 C 30.643164298754087 27.040102099600176 35.87462392247616 C 0.0 **** -0.24
12552 H 31.604655078534684 27.48791014802311 36.127153007974044 H 0.0 **** 0.06
12553 H 29.838839375826886 27.699811440791997 36.20069215770164 H 0.0 **** 0.06
12554 H 30.549805318084886 26.076067145152493 36.37451207939728 H 0.0 **** 0.06
12555 H 30.582292954383114 26.897185178791098 34.79588675052017 H 0.0 **** 0.06
12556 C 87.81330038984036 86.80111869974272 45.29918909041759 C 0.0 **** -0.24
12557 H 87.3139732204725 87.6950226110925 45.67129737458031 H 0.0 **** 0.06
12558 H 87.52697159801494 86.62939669542868 44.26185943520956 H 0.0 **** 0.06
12559 H 87.51864330337939 85.94291550680106 45.9042651403526 H 0.0 **** 0.06
12560 H 88.89343540416971 86.93577000971487 45.36135723276856 H 0.0 **** 0.06
12561 C 55.56834239994157 55.12731991355139 77.4545548380398 C 0.0 **** -0.24
12562 H 55.60047921060084 56.13726196257625 77.86531126718486 H 0.0 **** 0.06
12563 H 55.321242198924466 55.17484333608331 76.39334677094786 H 0.0 **** 0.06
12564 H 54.80947879616784 54.546842786157924 77.97922979036275 H 0.0 **** 0.06
12565 H 56.541597613304305 54.65359365216261 77.58051179614037 H 0.0 **** 0.06
12566 C 90.98712043117834 17.239821197635465 102.35390972619031 C 0.0 **** -0.24
12567 H 91.47370346596577 17.271398186777297 103.32828812377949 H 0.0 **** 0.06
12568 H 90.35661800470379 18.12113848355373 102.2344441450839 H 0.0 **** 0.06
12569 H 90.37466489943458 16.34163500878011 102.28160340844418 H 0.0 **** 0.06
12570 H 91.7453214762983 17.225995740393543 101.57036167265673 H 0.0 **** 0.06
12571 C 19.882199178673588 123.63580903654119 39.893094286845326 C 0.0 **** -0.24
12572 H 20.560904125782244 123.04868871323515 40.51299095196333 H 0.0 **** 0.06
12573 H 19.321033461494878 122.9686143875498 39.23797912823764 H 0.0 **** 0.06
12574 H 20.457053452279887 124.33903377899959 39.29085349486343 H 0.0 **** 0.06
12575 H 19.190686156075472 124.18489055467892 40.53233970730952 H 0.0 **** 0.06
12576 C 75.69483480103037 88.76051854321193 115.10964256227726 C 0.0 **** -0.24
12577 H 75.6855506920731 89.55607704919079 115.854886116078 H 0.0 **** 0.06
12578 H 76.57491943928778 88.86672850007939 114.475041136838 H 0.0 **** 0.06
12579 H 74.79457011572151 88.8258869433228 114.49752900033332 H 0.0 **** 0.06
12580 H 75.72264334167113 87.79344911834774 115.61161853297841 H 0.0 **** 0.06
12581 C 89.33982766258828 124.29927056953248 107.30609520444887 C 0.0 **** -0.24
12582 H 90.37783542876242 123.97093431554397 107.35675718394967 H 0.0 **** 0.06
12583 H 89.2682859344647 125.33332473019841 107.64230675342266 H 0.0 **** 0.06
12584 H 88.72709796446067 123.66546444602425 107.94731638020309 H 0.0 **** 0.06
12585 H 88.98547470385017 124.22523574838819 106.27766468667201 H 0.0 **** 0.06
12586 C 81.21271542674997 61.457172069207815 81.96256349905586 C 0.0 **** -0.24
12587 H 80.85783611022339 61.85768315053227 81.01231085755283 H 0.0 **** 0.06
12588 H 82.22890385061814 61.80464635383055 82.14596229237088 H 0.0 **** 0.06
12589 H 81.20155610754216 60.36803411698156 81.92325130677334 H 0.0 **** 0.06
12590 H 80.5604901491232 61.79822869211404 82.76561764015716 H 0.0 **** 0.06
12591 C 17.879975975546103 61.501577295805205 109.7254587512301 C 0.0 **** -0.24
12592 H 18.3660354192385 61.483160390458494 110.7008132988935 H 0.0 **** 0.06
12593 H 17.9012774143485 60.50221184204953 109.29029276739821 H 0.0 **** 0.06
12594 H 18.406620731859533 62.19515814190744 109.06973594712117 H 0.0 **** 0.06
12595 H 16.84597033673805 61.82577880880547 109.8409929915077 H 0.0 **** 0.06
12596 C 60.0981049306624 34.009204544400205 41.525491580606285 C 0.0 **** -0.24
12597 H 60.385392501888475 33.54730551738507 42.47048875244525 H 0.0 **** 0.06
12598 H 60.685947134601605 33.575775186148746 40.71622091047885 H 0.0 **** 0.06
12599 H 60.28407943150464 35.082614406037735 41.57556443518831 H 0.0 **** 0.06
12600 H 59.038023952678316 33.832097128959134 41.34169332454863 H 0.0 **** 0.06
12601 C 21.972101258171065 3.2031683808650087 80.23941208867853 C 0.0 **** -0.24
12602 H 22.465256544926433 2.3429301584424422 79.7856934668977 H 0.0 **** 0.06
12603 H 22.707922479675744 3.8027132648767292 80.77535847869996 H 0.0 **** 0.06
12604 H 21.207866405886776 2.8573939719464363 80.93686870230485 H 0.0 **** 0.06
12605 H 21.507068673733528 3.807618538615756 79.46064693076082 H 0.0 **** 0.06
12606 C 48.890662185723954 84.46524805710061 79.43731968035041 C 0.0 **** -0.24
12607 H 48.297249150239566 85.3729533185106 79.54878097022404 H 0.0 **** 0.06
12608 H 48.492925046914706 83.8707071620227 78.61416730895152 H 0.0 **** 0.06
12609 H 48.84488047537417 83.88562422381231 80.35937050545996 H 0.0 **** 0.06
12610 H 49.92618839923023 84.731661621713 79.22710857568225 H 0.0 **** 0.06
12611 C 57.8714858227906 115.45075095779356 72.78776089618799 C 0.0 **** -0.24
12612 H 56.81190720823466 115.19512497431013 72.8080094981184 H 0.0 **** 0.06
12613 H 58.129619204485934 115.8547863662155 71.8084029090598 H 0.0 **** 0.06
12614 H 58.463891105389266 114.55741572819504 72.98096679324175 H 0.0 **** 0.06
12615 H 58.079540937176375 116.19752762406951 73.55493116974043 H 0.0 **** 0.06
12616 C 12.545121357809684 61.26889299432766 97.71652375882319 C 0.0 **** -0.24
12617 H 13.160039165013128 61.329986091453506 98.6144798813247 H 0.0 **** 0.06
12618 H 12.771626528943028 60.345070998145715 97.18388521701404 H 0.0 **** 0.06
12619 H 12.758338491880007 62.12185514494723 97.07270588107384 H 0.0 **** 0.06
12620 H 11.491205718722554 61.278874485323854 97.99621952061844 H 0.0 **** 0.06
12621 C 40.22528428076296 97.61919315914963 64.57566212838363 C 0.0 **** -0.24
12622 H 40.58165455337442 96.5932126233725 64.47825219133559 H 0.0 **** 0.06
12623 H 39.58332618872913 97.86203505664906 63.72864671308095 H 0.0 **** 0.06
12624 H 41.0773511873485 98.29932379970705 64.59297722280766 H 0.0 **** 0.06
12625 H 39.660512645548536 97.72136389762665 65.50159600008669 H 0.0 **** 0.06
12626 C 116.48663422408956 124.74400734772485 64.73451703697309 C 0.0 **** -0.24
12627 H 117.38172249539802 124.85874848028101 64.12428605451244 H 0.0 **** 0.06
12628 H 116.38433678818463 123.70113306060261 65.0366097266575 H 0.0 **** 0.06
12629 H 115.61236615423381 125.04289813853558 64.15661472549004 H 0.0 **** 0.06
12630 H 116.56806746023287 125.37263924848844 65.62134849838378 H 0.0 **** 0.06
12631 C 37.41478237262637 23.09961895914749 45.53016964667373 C 0.0 **** -0.24
12632 H 36.77172238332278 22.572888057918554 46.234615406027785 H 0.0 **** 0.06
12633 H 37.22903132442422 22.728796043211297 44.521654679290236 H 0.0 **** 0.06
12634 H 38.458129803047576 22.9290527432615 45.79348070487549 H 0.0 **** 0.06
12635 H 37.2002459797109 24.1677389921987 45.57092779650108 H 0.0 **** 0.06
12636 C 102.0880442659165 66.83658561874807 115.06922490316505 C 0.0 **** -0.24
12637 H 101.3548591736913 66.66010167684624 115.85601171557772 H 0.0 **** 0.06
12638 H 102.18112672050557 67.90855018460934 114.89325862427059 H 0.0 **** 0.06
12639 H 101.76192832425465 66.34507367227599 114.15255545608493 H 0.0 **** 0.06
12640 H 103.0530548054137 66.43368537598724 115.37444195050475 H 0.0 **** 0.06
12641 C 54.82983577909391 116.72990309620151 102.85155368997006 C 0.0 **** -0.24
12642 H 55.33186825267825 115.86509408417632 103.28576131111379 H 0.0 **** 0.06
12643 H 55.53518393777961 117.5572383371643 102.77379868651994 H 0.0 **** 0.06
12644 H 53.99546275638278 117.02255262564772 103.4881550758667 H 0.0 **** 0.06
12645 H 54.45815919288424 116.47373968599017 101.86000075282024 H 0.0 **** 0.06
12646 C 120.73927247306588 53.59691562072993 10.274841571188773 C 0.0 **** -0.24
12647 H 120.7292173634244 53.64201787922934 11.363600552209249 H 0.0 **** 0.06
12648 H 119.71858422544554 53.66980898553328 9.898079601000887 H 0.0 **** 0.06
12649 H 121.17801090509892 52.6514716127448 9.955028007451318 H 0.0 **** 0.06
12650 H 121.33196355335954 54.423139616711055 9.882831834867744 H 0.0 **** 0.06
12651 C 105.91919769948855 24.512470609996228 45.34646314483996 C 0.0 **** -0.24
12652 H 106.51294219604249 24.900260059657597 46.174337106020005 H 0.0 **** 0.06
12653 H 104.86286838223175 24.701907213176014 45.53666725874896 H 0.0 **** 0.06
12654 H 106.08510800313286 23.43841243949106 45.25321946761579 H 0.0 **** 0.06
12655 H 106.21762661181151 25.00691153343209 44.422081285329455 H 0.0 **** 0.06
12656 C 53.596542808077885 67.67243401864513 111.90913248653791 C 0.0 **** -0.24
12657 H 53.51751867504353 66.66728808299733 112.3225430195383 H 0.0 **** 0.06
12658 H 54.030084709887234 67.62254074994208 110.91022480320177 H 0.0 **** 0.06
12659 H 54.23311463922303 68.28031907740834 112.55139137574938 H 0.0 **** 0.06
12660 H 52.60439209370864 68.1215200435493 111.85274778635852 H 0.0 **** 0.06
12661 C 49.99128699081915 106.86130661920569 14.179636219069295 C 0.0 **** -0.24
12662 H 50.70322764467801 106.42754940056648 14.88225039637183 H 0.0 **** 0.06
12663 H 50.19680007430625 106.48594547764745 13.176156788551538 H 0.0 **** 0.06
12664 H 50.08659993323097 107.94674131300701 14.189755327595662 H 0.0 **** 0.06
12665 H 48.97847520781697 106.58256479784487 14.47214743553576 H 0.0 **** 0.06
12666 C 121.01159511996686 128.29128221966943 73.27813909123898 C 0.0 **** -0.24
12667 H 121.84916352698124 127.63852088528671 73.52757720105492 H 0.0 **** 0.06
12668 H 120.17963784983382 128.08819946713726 73.95227183176411 H 0.0 **** 0.06
12669 H 120.7011185788738 128.10538409839853 72.250694401083 H 0.0 **** 0.06
12670 H 121.31922070256543 129.33159201714062 73.38258753901471 H 0.0 **** 0.06
12671 C 0.5510160966595592 44.789027355059815 16.02405020631184 C 0.0 **** -0.24
12672 H 0.9984127316634712 44.91631103008217 15.038856558629934 H 0.0 **** 0.06
12673 H 0.2577551019168016 43.747438690929286 16.15783194182501 H 0.0 **** 0.06
12674 H -0.3268497502105774 45.428741731536746 16.110782565224092 H 0.0 **** 0.06
12675 H 1.2771847855354288 45.06280243511509 16.789908385227676 H 0.0 **** 0.06
12676 C 30.489592641444062 63.24957700283028 76.03472643051941 C 0.0 **** -0.24
12677 H 31.570352840929843 63.248224970354386 76.1771484987209 H 0.0 **** 0.06
12678 H 30.142220787302335 62.2270498405108 75.88232058196144 H 0.0 **** 0.06
12679 H 30.238532453246023 63.85239939242308 75.16265455683839 H 0.0 **** 0.06
12680 H 30.00712273256653 63.66903020711368 76.91796892672602 H 0.0 **** 0.06
12681 C 9.097674631422564 104.76439718577927 114.53938694733927 C 0.0 **** -0.24
12682 H 8.439944863221854 105.10076048058846 115.34071630720871 H 0.0 **** 0.06
12683 H 8.857233361229845 103.7326042836898 114.28101718943839 H 0.0 **** 0.06
12684 H 10.134762622079933 104.82409128085123 114.8704724643066 H 0.0 **** 0.06
12685 H 8.957514923808105 105.40007111665875 113.664669609111 H 0.0 **** 0.06
12686 C 69.75186021698367 71.91158379927589 6.5231280622973316 C 0.0 **** -0.24
12687 H 68.83697295012844 71.90092663960885 7.115237142156474 H 0.0 **** 0.06
12688 H 70.5930838307833 72.18363630796338 7.161420933057457 H 0.0 **** 0.06
12689 H 69.65507013711456 72.63871741178556 5.717852473834341 H 0.0 **** 0.06
12690 H 69.92215063857842 70.92107389757638 6.1002488558984 H 0.0 **** 0.06
12691 C 18.799287421240358 72.69647068389557 22.297457874293514 C 0.0 **** -0.24
12692 H 18.540770980201906 73.0991106094537 23.277016362125266 H 0.0 **** 0.06
12693 H 18.730599563705674 73.48772662417744 21.55054454775967 H 0.0 **** 0.06
12694 H 18.108654550876437 71.89348719417359 22.04160601542361 H 0.0 **** 0.06
12695 H 19.816886696450737 72.30707204254037 22.321949965750207 H 0.0 **** 0.06
12696 C 94.92902870941344 34.4186103481278 21.54469579546563 C 0.0 **** -0.24
12697 H 95.37117124310697 35.311225037718145 21.98664311766757 H 0.0 **** 0.06
12698 H 93.93006009650429 34.65323525146016 21.176085734263296 H 0.0 **** 0.06
12699 H 94.86386770561381 33.63481284395897 22.29944078055658 H 0.0 **** 0.06
12700 H 95.55031144066703 34.07644256113002 20.718310700922927 H 0.0 **** 0.06
12701 C 44.47888491316092 126.27619813952246 124.07751232110164 C 0.0 **** -0.24
12702 H 43.58998720710695 126.37142721523944 124.70201117836967 H 0.0 **** 0.06
12703 H 44.794167828387266 127.26343519291191 123.74058039433308 H 0.0 **** 0.06
12704 H 44.24871747985406 125.65257974170213 123.21291380779624 H 0.0 **** 0.06
12705 H 45.28069467833046 125.8153327093013 124.65474073945381 H 0.0 **** 0.06
12706 C 39.253604775598944 65.75270239576953 2.8183390852287253 C 0.0 **** -0.24
12707 H 40.047079203553324 66.45956791523442 2.572408137640707 H 0.0 **** 0.06
12708 H 38.324593130081894 66.07214404391897 2.345651143747631 H 0.0 **** 0.06
12709 H 39.11853950363894 65.71994581143964 3.8991336127214 H 0.0 **** 0.06
12710 H 39.525511553178376 64.76193599658777 2.454279865405841 H 0.0 **** 0.06
12711 C 86.68839885512591 61.355787530911385 62.56295171149813 C 0.0 **** -0.24
12712 H 87.37820575495891 60.56602301580145 62.858953180362505 H 0.0 **** 0.06
12713 H 86.17461953726371 61.06453210452693 61.64646025200467 H 0.0 **** 0.06
12714 H 87.24338507155858 62.27851166438333 62.39187577525121 H 0.0 **** 0.06
12715 H 85.95581758328723 61.51428199047264 63.35522737948489 H 0.0 **** 0.06
12716 C 3.7848693767327006 78.97233270293941 94.5422498596352 C 0.0 **** -0.24
12717 H 4.246888696882053 79.84141628644619 95.0116296603689 H 0.0 **** 0.06
12718 H 3.823295023639133 78.12612489810658 95.22908343225866 H 0.0 **** 0.06
12719 H 4.325154027729013 78.72450279718964 93.62875695531443 H 0.0 **** 0.06
12720 H 2.746528481164603 79.19891547155851 94.30033066156429 H 0.0 **** 0.06
12721 C 78.56365955278397 71.57967281050028 104.18388785633775 C 0.0 **** -0.24
12722 H 78.91404886571425 72.60892237173869 104.26384511437175 H 0.0 **** 0.06
12723 H 79.37331524314746 70.89862073640816 104.44743717986259 H 0.0 **** 0.06
12724 H 78.24300880722095 71.38397336224077 103.16034140800343 H 0.0 **** 0.06
12725 H 77.72483177759341 71.4271457215489 104.86263220563987 H 0.0 **** 0.06
12726 C 16.032755714939157 102.16581471997 127.32061899414326 C 0.0 **** -0.24
12727 H 16.912817938791193 101.9466833049392 126.71553767278031 H 0.0 **** 0.06
12728 H 15.898205288726615 101.380209797948 128.06379698790917 H 0.0 **** 0.06
12729 H 15.15390237840873 102.21329369418851 126.67820013791457 H 0.0 **** 0.06
12730 H 16.16701763734318 103.12336119791217 127.82350261115076 H 0.0 **** 0.06
12731 C 80.38252211936893 39.155480327428144 21.3269735456565 C 0.0 **** -0.24
12732 H 79.7491679026873 39.799420521508445 20.71578290262019 H 0.0 **** 0.06
12733 H 79.75597731339136 38.506549102088975 21.93932587145747 H 0.0 **** 0.06
12734 H 81.01042616846357 39.77069156256943 21.971596785454807 H 0.0 **** 0.06
12735 H 81.0136014620796 38.54730889978399 20.67919748281517 H 0.0 **** 0.06
12736 C 42.85863928195673 60.29361060694197 117.44377357852423 C 0.0 **** -0.24
12737 H 43.29873921159697 60.5627081140735 116.4838459650943 H 0.0 **** 0.06
12738 H 43.351051248417235 59.401602118283535 117.83076036148883 H 0.0 **** 0.06
12739 H 41.79489306149935 60.094421769897906 117.31309738774459 H 0.0 **** 0.06
12740 H 42.989873606313324 61.11571042551299 118.1473905997691 H 0.0 **** 0.06
12741 C 9.61054759756675 0.8695851013630715 54.637449958186 C 0.0 **** -0.24
12742 H 8.59667443559212 0.49042805451156823 54.51184908332759 H 0.0 **** 0.06
12743 H 9.634324406280058 1.5717302462522582 55.47164921769267 H 0.0 **** 0.06
12744 H 9.923988322692225 1.3768998685312397 53.7259358237681 H 0.0 **** 0.06
12745 H 10.286081519490352 0.03848982763426534 54.84213040159817 H 0.0 **** 0.06
12746 C 13.653634562911975 81.59875350418378 11.607862954166414 C 0.0 **** -0.24
12747 H 14.379983868144777 82.37768846061209 11.376593687631406 H 0.0 **** 0.06
12748 H 12.647142404436863 82.01591704516301 11.56330246752886 H 0.0 **** 0.06
12749 H 13.843230865050728 81.21087047918769 12.60797264205743 H 0.0 **** 0.06
12750 H 13.744725446580802 80.79140225580267 10.88218409602932 H 0.0 **** 0.06
12751 C 27.046851746787738 11.636550776059096 2.0328995555272513 C 0.0 **** -0.24
12752 H 26.740762910360935 11.71365034105321 3.0761817557327618 H 0.0 **** 0.06
12753 H 28.11907409030279 11.8222944886258 1.9541206517189096 H 0.0 **** 0.06
12754 H 26.505160697887355 12.374058866515782 1.441021131046682 H 0.0 **** 0.06
12755 H 26.823597662645916 10.636151152904688 1.6621682829120914 H 0.0 **** 0.06
12756 C 101.78330338764367 24.80655626581276 116.71529606950729 C 0.0 **** -0.24
12757 H 101.88237111074659 23.763423394881755 116.41533130618501 H 0.0 **** 0.06
12758 H 102.76792967450866 25.27525894408066 116.7306067570143 H 0.0 **** 0.06
12759 H 101.34055397725183 24.85764705783157 117.71016449140674 H 0.0 **** 0.06
12760 H 101.14326368228343 25.329973491589243 116.0046631954604 H 0.0 **** 0.06
12761 C 106.87516710254397 8.3010559423536 17.57082485706927 C 0.0 **** -0.24
12762 H 107.30455481396307 7.339349234055305 17.28868674855302 H 0.0 **** 0.06
12763 H 107.65263947337574 9.065125445092804 17.553104701432638 H 0.0 **** 0.06
12764 H 106.4559731049721 8.231705380724634 18.57441607899561 H 0.0 **** 0.06
12765 H 106.08761572251453 8.567768732710363 16.866137286005205 H 0.0 **** 0.06
12766 C 66.8188739812391 35.982244510369014 87.12591879538789 C 0.0 **** -0.24
12767 H 66.37518367679104 34.98679098993003 87.1315451847282 H 0.0 **** 0.06
12768 H 67.5326959655795 36.06534485052248 87.94693043498071 H 0.0 **** 0.06
12769 H 66.03556416748916 36.730301858724516 87.24716398328835 H 0.0 **** 0.06
12770 H 67.33392370083926 36.14537866614975 86.17910703131881 H 0.0 **** 0.06
12771 C 125.1000379059892 110.76008204172615 47.840215855294474 C 0.0 **** -0.24
12772 H 126.06258123027337 110.88918935841929 48.335788408569016 H 0.0 **** 0.06
12773 H 124.42993388819505 111.57006133398681 48.1318658793293 H 0.0 **** 0.06
12774 H 124.66545946962864 109.80513412582047 48.1351862144987 H 0.0 **** 0.06
12775 H 125.24264790431876 110.77659076665901 46.76033797138268 H 0.0 **** 0.06
12776 C 24.85381268781498 57.755628568463464 129.2110323116347 C 0.0 **** -0.24
12777 H 24.261933208955327 58.60616729168936 128.87348526519753 H 0.0 **** 0.06
12778 H 24.839450897039626 57.71327452689076 130.3009302165271 H 0.0 **** 0.06
12779 H 25.8804459528871 57.86714257976564 128.86415314311222 H 0.0 **** 0.06
12780 H 24.43109951466971 56.836285566036 128.80625772570426 H 0.0 **** 0.06
12781 C 37.17812823255478 110.17145505560558 26.508471345319975 C 0.0 **** -0.24
12782 H 37.003564134830484 109.20799232705065 26.986658940957838 H 0.0 **** 0.06
12783 H 38.03498598540929 110.65828614300125 26.975039451534514 H 0.0 **** 0.06
12784 H 36.294921073236836 110.8002190741961 26.62572513320336 H 0.0 **** 0.06
12785 H 37.37899422857146 110.01995547033198 25.447725749945818 H 0.0 **** 0.06
12786 C 35.56994432072145 5.138000879463675 8.054115757292436 C 0.0 **** -0.24
12787 H 36.46150995557923 5.484579840344736 8.575967431001914 H 0.0 **** 0.06
12788 H 34.847531856322604 5.9516145629744415 7.989397358147187 H 0.0 **** 0.06
12789 H 35.130289056098334 4.304497312998365 8.601250550822328 H 0.0 **** 0.06
12790 H 35.84118004592729 4.810235863071398 7.050399281267687 H 0.0 **** 0.06
12791 C 14.220451874365324 13.827146975734276 117.25808164848775 C 0.0 **** -0.24
12792 H 14.322747626805125 12.800128569804805 116.90753743854346 H 0.0 **** 0.06
12793 H 13.720443007004292 14.423499566141228 116.49445266283801 H 0.0 **** 0.06
12794 H 15.208061350636115 14.243788716090172 117.4568117972583 H 0.0 **** 0.06
12795 H 13.629847742399335 13.840442388104496 118.17450867863509 H 0.0 **** 0.06
12796 C 122.52102665980432 32.72749505758057 3.780016974261514 C 0.0 **** -0.24
12797 H 123.33618639989325 32.72592346157785 3.0569156283015673 H 0.0 **** 0.06
12798 H 121.8080398915308 33.510394642372134 3.5219751851972774 H 0.0 **** 0.06
12799 H 122.92050831045856 32.9135556008211 4.7765716948958925 H 0.0 **** 0.06
12800 H 122.02030984221452 31.75940227284036 3.7638150330196822 H 0.0 **** 0.06
12801 C 33.019960983140095 0.9006951134930432 64.73507397268743 C 0.0 **** -0.24
12802 H 33.10605247918548 1.8116333821037642 65.32591074741221 H 0.0 **** 0.06
12803 H 32.132918037180985 0.9598280267972541 64.10388492336023 H 0.0 **** 0.06
12804 H 32.93506389095239 0.04158872558201665 65.40161448044832 H 0.0 **** 0.06
12805 H 33.90527084766907 0.7884629011650759 64.10856388682542 H 0.0 **** 0.06
12806 C 6.74484422861897 9.83625224853023 7.8241968066529175 C 0.0 **** -0.24
12807 H 7.793618511165668 9.78373371221511 7.529398807047503 H 0.0 **** 0.06
12808 H 6.629106216746461 9.426375804392592 8.827460716742724 H 0.0 **** 0.06
12809 H 6.1412528933180255 9.259589591869542 7.123196693228142 H 0.0 **** 0.06
12810 H 6.418428932799209 10.875661961866228 7.8158956138784355 H 0.0 **** 0.06
12811 C 2.3395011169819213 54.611993746354955 26.360518406532236 C 0.0 **** -0.24
12812 H 2.25428925150581 55.35453469881146 27.154059429161045 H 0.0 **** 0.06
12813 H 3.0650465615018874 53.85161975389639 26.651096658543416 H 0.0 **** 0.06
12814 H 2.6702549495607286 55.098575322728195 25.44295438132348 H 0.0 **** 0.06
12815 H 1.3691562116253522 54.143798431293945 26.196230968010696 H 0.0 **** 0.06
12816 C 25.58919491606472 68.05060233513046 28.14456004236027 C 0.0 **** -0.24
12817 H 25.36828110791042 68.80164425440537 28.902167806099698 H 0.0 **** 0.06
12818 H 25.98684933034641 67.15581301705342 28.625106192247443 H 0.0 **** 0.06
12819 H 26.325619595728213 68.4455526787564 27.445225825959568 H 0.0 **** 0.06
12820 H 24.674890805166974 67.79876586908203 27.606289744926215 H 0.0 **** 0.06
12821 C 92.35780798766137 46.23494609617575 110.71808676346566 C 0.0 **** -0.24
12822 H 92.41213647766709 46.39912354781298 111.79335488704265 H 0.0 **** 0.06
12823 H 93.04727632466918 46.910474104719995 110.2118656814603 H 0.0 **** 0.06
12824 H 91.34233070120702 46.42652587367141 110.37198343234198 H 0.0 **** 0.06
12825 H 92.62959890853702 45.203037242228845 110.49387853219272 H 0.0 **** 0.06
12826 C 106.86747635301296 68.95823428961972 62.57227372400632 C 0.0 **** -0.24
12827 H 106.68342472845112 68.06215617720397 61.97826482363831 H 0.0 **** 0.06
12828 H 107.75721422176193 69.46508259945114 62.19721659956443 H 0.0 **** 0.06
12829 H 107.02039155895528 68.67838657216046 63.61358517999878 H 0.0 **** 0.06
12830 H 106.01023206224446 69.62651409747406 62.49710897969007 H 0.0 **** 0.06
12831 C 77.35350740211618 25.52042933600343 41.761989522303466 C 0.0 **** -0.24
12832 H 76.29952811794715 25.769576071532207 41.8817976918826 H 0.0 **** 0.06
12833 H 77.90495525225333 25.841861809443834 42.6470014127944 H 0.0 **** 0.06
12834 H 77.7498162600865 26.02803829257695 40.88209978350336 H 0.0 **** 0.06
12835 H 77.4611959890529 24.443016110726937 41.63886214734196 H 0.0 **** 0.06
12836 C 90.26400097862941 87.92589393568426 53.14544795400958 C 0.0 **** -0.24
12837 H 90.97991325143829 87.1032769188782 53.14729028323882 H 0.0 **** 0.06
12838 H 90.14406040552021 88.30432920286317 54.159980559931995 H 0.0 **** 0.06
12839 H 89.3031556095745 87.57039562628881 52.77410907310238 H 0.0 **** 0.06
12840 H 90.63044211681378 88.72381472269431 52.499742318440525 H 0.0 **** 0.06
12841 C 26.232683387362073 125.6435134254194 56.700486987453075 C 0.0 **** -0.24
12842 H 25.762896127919703 124.7286987101593 57.06339813873974 H 0.0 **** 0.06
12843 H 26.57692132073646 126.23608001484808 57.54759530580131 H 0.0 **** 0.06
12844 H 25.508740466857233 126.21888361203972 56.12390461063208 H 0.0 **** 0.06
12845 H 27.08048248764368 125.38777089988551 56.065924267881 H 0.0 **** 0.06
12846 C 25.130723243168518 67.04435594919835 90.04073077331765 C 0.0 **** -0.24
12847 H 24.988462136376143 66.56070303088987 89.07411651515656 H 0.0 **** 0.06
12848 H 25.68685644038726 66.3797355164906 90.70113138114175 H 0.0 **** 0.06
12849 H 24.158229842414812 67.26571556674 90.48163556228957 H 0.0 **** 0.06
12850 H 25.68689409058902 67.97200759004903 89.90447399494445 H 0.0 **** 0.06
12851 C 121.03935546724762 6.218029707277793 94.21404685051422 C 0.0 **** -0.24
12852 H 121.12516657210428 7.00425008155085 93.4649044276799 H 0.0 **** 0.06
12853 H 122.02591559838203 5.996731724896932 94.62313591859512 H 0.0 **** 0.06
12854 H 120.62722635180003 5.320520004763779 93.7541443308451 H 0.0 **** 0.06
12855 H 120.38062002523367 6.55147102321564 95.01573504431369 H 0.0 **** 0.06
12856 C 109.56971291802414 117.17554387136005 48.67830247045839 C 0.0 **** -0.24
12857 H 110.24693341224496 117.77943361950508 49.28143760197918 H 0.0 **** 0.06
12858 H 109.52973492924745 116.16250690734489 49.080249497307136 H 0.0 **** 0.06
12859 H 109.92875177380108 117.14391022622436 47.65030499814819 H 0.0 **** 0.06
12860 H 108.57247612738288 117.61555784113119 48.701924285889106 H 0.0 **** 0.06
12861 C 127.68760492927217 95.36708043159109 68.47542710565325 C 0.0 **** -0.24
12862 H 127.3483753910275 94.81940838932496 69.35455912788629 H 0.0 **** 0.06
12863 H 128.08303961232386 96.33622494985768 68.78195257893393 H 0.0 **** 0.06
12864 H 126.84896677979121 95.5162260028191 67.7950036002987 H 0.0 **** 0.06
12865 H 128.4686062599373 94.79760454294932 67.97147610537723 H 0.0 **** 0.06
12866 C 86.53304748133525 68.06278106486928 130.10281329165835 C 0.0 **** -0.24
12867 H 85.63373937474245 68.47416790391762 129.64642730819938 H 0.0 **** 0.06
12868 H 86.34973814609958 67.03092496061765 130.403238264576 H 0.0 **** 0.06
12869 H 86.79901593337209 68.6548889605267 130.97847104006937 H 0.0 **** 0.06
12870 H 87.35170357023688 68.09163889681759 129.38226487427696 H 0.0 **** 0.06
12871 C 13.713257499332656 62.48631138115016 19.87449989136212 C 0.0 **** -0.24
12872 H 14.272966598766232 62.44418360858012 20.808578803268517 H 0.0 **** 0.06
12873 H 13.520344078849917 61.47378135257554 19.52060753622456 H 0.0 **** 0.06
12874 H 14.292771835873793 63.02881666554518 19.127527588943224 H 0.0 **** 0.06
12875 H 12.766217419987811 63.00032229514122 20.04140221428196 H 0.0 **** 0.06
12876 C 51.38699665992782 46.3677827201181 114.16841252365033 C 0.0 **** -0.24
12877 H 52.37498234082835 46.73106652567793 113.88543435445463 H 0.0 **** 0.06
12878 H 51.06470189095897 46.869210417874626 115.08110843549512 H 0.0 **** 0.06
12879 H 51.43075709026556 45.292862638132135 114.3401776040876 H 0.0 **** 0.06
12880 H 50.67850381674408 46.57897596428586 113.36726410340152 H 0.0 **** 0.06
12881 C 96.25114370251025 55.28027243889929 107.43371433407358 C 0.0 **** -0.24
12882 H 96.41291590566048 54.839509700664806 106.45037848465967 H 0.0 **** 0.06
12883 H 96.94831251687374 54.84005310156698 108.14718969645158 H 0.0 **** 0.06
12884 H 95.22887763348227 55.083646857648105 107.75633162443923 H 0.0 **** 0.06
12885 H 96.41502164242901 56.35575362687409 107.38137313201482 H 0.0 **** 0.06
12886 C 28.753905204360095 20.477406697188684 25.824264339742584 C 0.0 **** -0.24
12887 H 29.827116385377906 20.36550345309965 25.984648261177497 H 0.0 **** 0.06
12888 H 28.52968175650092 20.346160859259044 24.765568038451278 H 0.0 **** 0.06
12889 H 28.442310657837766 21.472154167973898 26.14234571311104 H 0.0 **** 0.06
12890 H 28.22001260986788 19.72541692316588 26.40526567055332 H 0.0 **** 0.06
12891 C 15.529375219950392 123.46551839004769 8.708817879430342 C 0.0 **** -0.24
12892 H 15.004873162193526 122.86748434272639 9.453261480019876 H 0.0 **** 0.06
12893 H 15.515012492451334 124.51388914710294 9.009171030940081 H 0.0 **** 0.06
12894 H 15.036278355533263 123.35762315427695 7.743270618990493 H 0.0 **** 0.06
12895 H 16.561777988115566 123.12396308951195 8.629426376919184 H 0.0 **** 0.06
12896 C 39.41808112344578 92.4405914919628 85.75029826212062 C 0.0 **** -0.24
12897 H 38.594655906904755 91.90838305892048 85.27554728981727 H 0.0 **** 0.06
12898 H 39.86180137262515 93.1358109886136 85.03674747019966 H 0.0 **** 0.06
12899 H 40.173064213557005 91.72501039195008 86.07710819925654 H 0.0 **** 0.06
12900 H 39.04500750463012 92.99332098538022 86.61212922872517 H 0.0 **** 0.06
12901 C 129.65258037756365 42.59901166834425 115.89664427586915 C 0.0 **** -0.24
12902 H 130.18243986114499 42.467652026014036 114.95291864260393 H 0.0 **** 0.06
12903 H 128.97768081693647 41.756829209485886 116.05344615201872 H 0.0 **** 0.06
12904 H 129.0779773076497 43.523900282804505 115.86526359812446 H 0.0 **** 0.06
12905 H 130.37247140868644 42.64501426979248 116.71297083911715 H 0.0 **** 0.06
12906 C 17.098029858987104 100.69649044518478 83.18468639701081 C 0.0 **** -0.24
12907 H 16.656186977516256 99.95498241534997 82.51868173601162 H 0.0 **** 0.06
12908 H 18.12136301740287 100.40630481703333 83.42365719317363 H 0.0 **** 0.06
12909 H 16.51235321841574 100.75455732097963 84.10263663078865 H 0.0 **** 0.06
12910 H 17.100394619987867 101.66917397397002 82.69287990637463 H 0.0 **** 0.06
12911 C 28.12593126997382 59.009816404622825 107.51028039258449 C 0.0 **** -0.24
12912 H 28.337984976667258 59.80123922502281 106.79173075054842 H 0.0 **** 0.06
12913 H 27.352418127638828 58.353557183152574 107.10931054817766 H 0.0 **** 0.06
12914 H 27.780562306900435 59.451257211072075 108.44512142826846 H 0.0 **** 0.06
12915 H 29.03302182808278 58.43372186611033 107.69366600919719 H 0.0 **** 0.06
12916 C 9.357537985642569 46.88168059392294 9.118720448510523 C 0.0 **** -0.24
12917 H 9.251312434960191 47.9665723235737 9.078950672960378 H 0.0 **** 0.06
12918 H 10.08587055025405 46.61651733665187 9.8849851436145 H 0.0 **** 0.06
12919 H 9.697071373003332 46.51490613394529 8.149955226294388 H 0.0 **** 0.06
12920 H 8.394180768815058 46.43202222007906 9.360552465657527 H 0.0 **** 0.06
12921 C 4.79422552517326 114.25256934664928 122.5995696156826 C 0.0 **** -0.24
12922 H 4.37381364937977 114.62385795527412 123.53440174841384 H 0.0 **** 0.06
12923 H 4.090811991667152 114.43792424156202 121.78698023058669 H 0.0 **** 0.06
12924 H 4.977953601535376 113.18175474766996 122.68523488200549 H 0.0 **** 0.06
12925 H 5.732150487198027 114.76697485483346 122.39371741271401 H 0.0 **** 0.06
12926 C 0.010783805766180876 73.88782497190708 5.512476002412427 C 0.0 **** -0.24
12927 H 0.3116470938839484 74.57971469131867 4.726400742601491 H 0.0 **** 0.06
12928 H -0.39499554033014306 74.44822776420928 6.354324126441281 H 0.0 **** 0.06
12929 H 0.8766448334648942 73.31289624057946 5.841100579474851 H 0.0 **** 0.06
12930 H -0.750264115363592 73.20948782629098 5.1270577413461 H 0.0 **** 0.06
12931 C 112.36277310515905 124.2662415700699 94.93314856159239 C 0.0 **** -0.24
12932 H 111.30829186168351 124.29713696100104 94.66039921609381 H 0.0 **** 0.06
12933 H 112.46902454346123 124.4676411439054 95.99969691232349 H 0.0 **** 0.06
12934 H 112.90752418947947 125.02016949092452 94.36492817108396 H 0.0 **** 0.06
12935 H 112.76734230396237 123.2793813342736 94.7069337436829 H 0.0 **** 0.06
12936 C 39.84123813150599 92.1245230191833 1.921212045816425 C 0.0 **** -0.24
12937 H 40.165837283643526 91.08620713912254 1.8524588766131025 H 0.0 **** 0.06
12938 H 39.03950479893983 92.30241301535085 1.2037057072988269 H 0.0 **** 0.06
12939 H 40.68097845162245 92.78257339918152 1.6991707705983856 H 0.0 **** 0.06
12940 H 39.47823827252657 92.32577947539379 2.9287428746675523 H 0.0 **** 0.06
12941 C 48.811416854530776 29.971059367422484 105.9253226011646 C 0.0 **** -0.24
12942 H 49.4810650143083 30.778230502244135 106.22039294926998 H 0.0 **** 0.06
12943 H 48.21308213095513 30.289768847888602 105.07156191056339 H 0.0 **** 0.06
12944 H 48.1540887356461 29.72228695224088 106.75824725469687 H 0.0 **** 0.06
12945 H 49.398389311389735 29.093721788845585 105.650914767525 H 0.0 **** 0.06
12946 C 55.156803147092376 2.8424025128600476 72.83403429139099 C 0.0 **** -0.24
12947 H 54.5844898692834 2.8328157095449065 73.76139670639893 H 0.0 **** 0.06
12948 H 55.82486084375054 3.7038441136411997 72.82905743536196 H 0.0 **** 0.06
12949 H 54.474498010109954 2.9060056018905662 71.98617944777459 H 0.0 **** 0.06
12950 H 55.744126853325895 1.9271644259490124 72.76011151784338 H 0.0 **** 0.06
12951 C 22.26468059419647 29.602489146020844 109.63574840224722 C 0.0 **** -0.24
12952 H 22.186355169645864 28.854733507218384 110.42606935074639 H 0.0 **** 0.06
12953 H 23.229188820971856 30.106404297520356 109.70744177588273 H 0.0 **** 0.06
12954 H 21.464006475442773 30.33265315211918 109.7474169756922 H 0.0 **** 0.06
12955 H 22.17960136981089 29.114570961420128 108.66476238733877 H 0.0 **** 0.06
12956 C 43.49217051897361 26.147511757315556 58.833241424631524 C 0.0 **** -0.24
12957 H 43.25638386812824 25.253857299575657 59.41058603892334 H 0.0 **** 0.06
12958 H 44.355432649379026 25.951151590079775 58.19659811474209 H 0.0 **** 0.06
12959 H 43.720556660086146 26.969014278094875 59.51172635997251 H 0.0 **** 0.06
12960 H 42.63630889830077 26.41602386151186 58.21405518488814 H 0.0 **** 0.06
12961 C 99.08193225059978 24.94787230058853 50.471351179585696 C 0.0 **** -0.24
12962 H 98.54374710324157 25.615550613425683 51.14413189099659 H 0.0 **** 0.06
12963 H 99.92169043734106 24.497398316676254 51.00103776621623 H 0.0 **** 0.06
12964 H 99.45343827709095 25.515875096845036 49.61739353119475 H 0.0 **** 0.06
12965 H 98.4093433392685 24.164207667928736 50.12222457516211 H 0.0 **** 0.06
12966 C 54.70997254249451 130.3865565122764 90.31262846088207 C 0.0 **** -0.24
12967 H 54.14237141534488 130.3560915650005 89.38280412637657 H 0.0 **** 0.06
12968 H 54.30651580437004 129.6520364072663 91.00921679954256 H 0.0 **** 0.06
12969 H 54.63636857760886 131.38242558674872 90.75005701010633 H 0.0 **** 0.06
12970 H 55.756302949249545 130.1572775474587 90.1065279906985 H 0.0 **** 0.06
12971 C 82.77052572635887 73.92225793925478 28.798208836079624 C 0.0 **** -0.24
12972 H 81.75211844821632 74.24754184492137 28.58610872379515 H 0.0 **** 0.06
12973 H 83.00192470776119 73.03977499747572 28.201373965583826 H 0.0 **** 0.06
12974 H 82.86195203255232 73.67938725830616 29.856850669073282 H 0.0 **** 0.06
12975 H 83.46666478069665 74.72308725195116 28.54816620267377 H 0.0 **** 0.06
12976 C 107.34732341381218 100.37612685708353 33.16075606797434 C 0.0 **** -0.24
12977 H 106.82314709005348 101.26453802569631 33.51388109115054 H 0.0 **** 0.06
12978 H 107.73670368530401 100.55853609900925 32.158757871183916 H 0.0 **** 0.06
12979 H 106.65557876873152 99.53383576452927 33.134401519604374 H 0.0 **** 0.06
12980 H 108.17196393999683 100.14818762912097 33.83618717903108 H 0.0 **** 0.06
12981 C 38.50413509257646 60.64841211084931 116.40714150969302 C 0.0 **** -0.24
12982 H 39.585627845467855 60.52739804458295 116.4726817020993 H 0.0 **** 0.06
12983 H 38.02552151671128 59.670043704805295 116.45734923352227 H 0.0 **** 0.06
12984 H 38.249780854477876 61.13128629313056 115.46388391650864 H 0.0 **** 0.06
12985 H 38.15809930294381 61.265899060271835 117.23633846879746 H 0.0 **** 0.06
12986 C 67.56739461742418 88.52645275597366 2.3615786390721 C 0.0 **** -0.24
12987 H 68.09549875091449 88.71004630810133 1.4251839701217826 H 0.0 **** 0.06
12988 H 66.5401025660774 88.87830946468085 2.2739527573831175 H 0.0 **** 0.06
12989 H 68.06783764320676 89.05925520032194 3.169983728265702 H 0.0 **** 0.06
12990 H 67.56913903918263 87.4575722095803 2.5750471444458647 H 0.0 **** 0.06
12991 C 6.401532907109058 23.463394895084562 35.949913685058675 C 0.0 **** -0.24
12992 H 7.265315498756948 23.456454115371777 35.28439960996809 H 0.0 **** 0.06
12993 H 5.688797966466382 24.215252084001364 35.6114123879571 H 0.0 **** 0.06
12994 H 6.726964990591739 23.700157263998335 36.96278682449929 H 0.0 **** 0.06
12995 H 5.928139816180405 22.482151512276502 35.93992292270687 H 0.0 **** 0.06
12996 C 48.4275027004073 104.44002591403638 110.0171698073068 C 0.0 **** -0.24
12997 H 49.12356227990378 103.61580680842061 110.17510788160524 H 0.0 **** 0.06
12998 H 48.12661543117173 104.8496311480176 110.98109088127853 H 0.0 **** 0.06
12999 H 47.54872308197736 104.07680452661059 109.48538412419003 H 0.0 **** 0.06
13000 H 48.914759745956545 105.21705261949299 109.42693373399251 H 0.0 **** 0.06
13001 C 57.69377664040742 23.251751238558313 20.174299522445068 C 0.0 **** -0.24
13002 H 58.6765042748284 23.536578578045635 20.548148651435753 H 0.0 **** 0.06
13003 H 57.67447362975622 23.35264994945436 19.089005400495353 H 0.0 **** 0.06
13004 H 56.93625168322325 23.901605701994157 20.613258092792336 H 0.0 **** 0.06
13005 H 57.48754325710729 22.216947415281936 20.447320211754544 H 0.0 **** 0.06
13006 C 38.8849201042261 48.88661215733046 69.61639152146799 C 0.0 **** -0.24
13007 H 39.922975159498066 49.010211754099714 69.92540337224236 H 0.0 **** 0.06
13008 H 38.72168338239905 49.41011290716588 68.67400718079503 H 0.0 **** 0.06
13009 H 38.22764451184777 49.30075640001104 70.38102595477918 H 0.0 **** 0.06
13010 H 38.66811124834402 47.826764754392514 69.48584333620329 H 0.0 **** 0.06
13011 C 8.672369511687663 7.057124326484125 66.46890226652866 C 0.0 **** -0.24
13012 H 8.642312986629122 6.780769588158336 67.52335245104794 H 0.0 **** 0.06
13013 H 7.655590288574018 7.126187627751541 66.08253879849778 H 0.0 **** 0.06
13014 H 9.22421975606062 6.300633401020317 65.91035209340154 H 0.0 **** 0.06
13015 H 9.16911790095483 8.022000459842449 66.36066811937431 H 0.0 **** 0.06
13016 C 98.95407830469085 105.08256100299963 7.775137194507735 C 0.0 **** -0.24
13017 H 99.7037340547304 105.8018510263102 8.105359249449037 H 0.0 **** 0.06
13018 H 99.1946458320036 104.74683245152526 6.765199467862548 H 0.0 **** 0.06
13019 H 97.97171638081599 105.55426257570798 7.777398863008614 H 0.0 **** 0.06
13020 H 98.94938156946344 104.22748561161241 8.45087343609649 H 0.0 **** 0.06
13021 C 48.52291246733931 4.101614955920951 103.66198516957803 C 0.0 **** -0.24
13022 H 48.17459130974677 4.672013484837947 102.8006476132154 H 0.0 **** 0.06
13023 H 49.6121341515056 4.128524509101425 103.69912666927206 H 0.0 **** 0.06
13024 H 48.18596817669378 3.0693066235758693 103.57323572579708 H 0.0 **** 0.06
13025 H 48.117375501806464 4.538935466449232 104.57458696413539 H 0.0 **** 0.06
13026 C 25.251092584191696 57.419900457850844 60.44530126750578 C 0.0 **** -0.24
13027 H 25.306984103200335 58.488802741930925 60.64717107982956 H 0.0 **** 0.06
13028 H 25.339718358400773 57.248165913360225 59.37189115511839 H 0.0 **** 0.06
13029 H 24.295483498477864 57.032209246221385 60.79843619171035 H 0.0 **** 0.06
13030 H 26.063852413521744 56.909105170322704 60.96301468522441 H 0.0 **** 0.06
13031 C 81.21149213410865 99.01707023982773 43.17260828410201 C 0.0 **** -0.24
13032 H 80.74073660138097 99.92747795665251 43.54205032582058 H 0.0 **** 0.06
13033 H 81.914698478557 98.64351582506855 43.9179997870055 H 0.0 **** 0.06
13034 H 81.74474100640487 99.23475463625962 42.246339044819536 H 0.0 **** 0.06
13035 H 80.44670209202667 98.26339926042353 42.98339477812931 H 0.0 **** 0.06
13036 C 54.299796823525526 103.76384619207323 44.970771255765015 C 0.0 **** -0.24
13037 H 53.70887022809444 104.46725722119609 44.38392019472329 H 0.0 **** 0.06
13038 H 55.14210304464876 104.28779216224171 45.424570134388176 H 0.0 **** 0.06
13039 H 54.67090113406567 102.97102687627176 44.32199660940444 H 0.0 **** 0.06
13040 H 53.676808618118685 103.3315295825555 45.7542752817906 H 0.0 **** 0.06
13041 C 125.09884759273514 5.062885355651787 85.76440811375733 C 0.0 **** -0.24
13042 H 125.84404225380767 4.878884935741297 84.9891498668546 H 0.0 **** 0.06
13043 H 125.5389188724761 4.8717476532033 86.74337652160565 H 0.0 **** 0.06
13044 H 124.24668349079774 4.3996768177394046 85.61295747295074 H 0.0 **** 0.06
13045 H 124.76768305060601 6.099690020469765 85.70994184334302 H 0.0 **** 0.06
13046 C 38.27047857864298 66.1682385349099 27.300421320412852 C 0.0 **** -0.24
13047 H 37.822447716655816 65.3233338172343 26.77634317852514 H 0.0 **** 0.06
13048 H 38.49139023461662 66.96249098386365 26.588207525785066 H 0.0 **** 0.06
13049 H 39.19266198841331 65.84703647977075 27.78552390107788 H 0.0 **** 0.06
13050 H 37.574210505904446 66.53853909191244 28.053072470954845 H 0.0 **** 0.06
13051 C 52.23535938157664 29.632497153419564 91.60461604530241 C 0.0 **** -0.24
13052 H 53.014285567286194 30.149846105117547 91.04471559367818 H 0.0 **** 0.06
13053 H 51.49460873205301 29.23383648760756 90.91120589366773 H 0.0 **** 0.06
13054 H 51.753885735510835 30.332214151431316 92.28856544570641 H 0.0 **** 0.06
13055 H 52.67827841196517 28.81544724698918 92.17411639756807 H 0.0 **** 0.06
13056 C 72.96964983960609 5.503080388982767 5.500060977387989 C 0.0 **** -0.24
13057 H 73.62117621128348 5.687846184965963 6.354072364519197 H 0.0 **** 0.06
13058 H 73.08346721265943 4.469202403437976 5.173844184553786 H 0.0 **** 0.06
13059 H 73.24180120127821 6.174834496816743 4.685164299349481 H 0.0 **** 0.06
13060 H 71.93358436291578 5.683047275455749 5.787551391182092 H 0.0 **** 0.06
13061 C 94.80188012801034 109.67385892821471 118.48120879709643 C 0.0 **** -0.24
13062 H 94.44803970147626 109.84976927202908 117.46629753679966 H 0.0 **** 0.06
13063 H 95.88232701590289 109.81596858709503 118.51961308262969 H 0.0 **** 0.06
13064 H 94.55945914816334 108.65317157722129 118.77826924480786 H 0.0 **** 0.06
13065 H 94.31815677256247 110.3742961397304 119.16155713628248 H 0.0 **** 0.06
13066 C 4.014040551878281 14.90708450381744 73.86648310344295 C 0.0 **** -0.24
13067 H 3.8624597999918535 15.861702185641928 74.3709083815661 H 0.0 **** 0.06
13068 H 3.9389463883707663 14.097740146913026 74.59283154392426 H 0.0 **** 0.06
13069 H 5.00266949878079 14.891920542598683 73.40623599116338 H 0.0 **** 0.06
13070 H 3.2529066674805733 14.778398676304413 73.09777342835844 H 0.0 **** 0.06
13071 C 40.58722368817541 114.95824705784153 129.31947398170084 C 0.0 **** -0.24
13072 H 40.49174784993721 115.97788682933108 128.9479534601112 H 0.0 **** 0.06
13073 H 41.19858638059745 114.37583367343782 128.63098163208923 H 0.0 **** 0.06
13074 H 39.59800223643782 114.50697010881359 129.3994398021245 H 0.0 **** 0.06
13075 H 41.060240370058295 114.97354747055451 130.30160361221783 H 0.0 **** 0.06
13076 C 17.185610273894284 41.69422967265285 102.39915685188669 C 0.0 **** -0.24
13077 H 17.424438281556426 42.17748652199961 103.34689125965963 H 0.0 **** 0.06
13078 H 17.565003183600886 40.67171463652164 102.40755752995904 H 0.0 **** 0.06
13079 H 17.65014001265388 42.24792380744779 101.58316211985255 H 0.0 **** 0.06
13080 H 16.10461331825507 41.680092465256934 102.26070042929001 H 0.0 **** 0.06
13081 C 27.511943569106293 90.23850417214791 25.55512293863947 C 0.0 **** -0.24
13082 H 27.478761364318366 89.44211660036075 26.299024330749944 H 0.0 **** 0.06
13083 H 28.550997644278063 90.4673450762929 25.315427267403237 H 0.0 **** 0.06
13084 H 27.02632360444877 91.1288119797081 25.955499967306565 H 0.0 **** 0.06
13085 H 26.993034363851088 89.9148172066636 24.65342820189352 H 0.0 **** 0.06
13086 C 113.77297694216436 39.38606988541018 37.041859306161456 C 0.0 **** -0.24
13087 H 113.021977418133 38.64960712349608 36.75755184081626 H 0.0 **** 0.06
13088 H 113.38389181726517 40.38896323231842 36.862487513171004 H 0.0 **** 0.06
13089 H 114.67403298210668 39.233844823021656 36.447803748266864 H 0.0 **** 0.06
13090 H 114.01132566064253 39.27243066181592 38.09912817145744 H 0.0 **** 0.06
13091 C 35.30936021208197 26.457655980310435 30.931657660662808 C 0.0 **** -0.24
13092 H 34.53966448895528 26.10189845143539 30.24706324088237 H 0.0 **** 0.06
13093 H 34.85597610031709 26.70598401986777 31.8920386178429 H 0.0 **** 0.06
13094 H 35.784326952959645 27.34530818595843 30.513787311911216 H 0.0 **** 0.06
13095 H 36.05747330609597 25.677433263980134 31.07374147201466 H 0.0 **** 0.06
13096 C 22.820802712058253 8.105863792156754 91.39313599278591 C 0.0 **** -0.24
13097 H 22.033705259005615 8.66251665658757 90.88342752878457 H 0.0 **** 0.06
13098 H 23.659501023428106 8.769851350355907 91.59929384877755 H 0.0 **** 0.06
13099 H 23.153499131820013 7.285278335117425 90.75680029664123 H 0.0 **** 0.06
13100 H 22.43408556016965 7.705515081460646 92.32969680814988 H 0.0 **** 0.06
13101 C 99.04267088125411 2.5710353811687128 75.82610466982854 C 0.0 **** -0.24
13102 H 99.05818195779666 3.082656470699959 74.86399827688976 H 0.0 **** 0.06
13103 H 98.11145301742901 2.8000792374730565 76.34506875253035 H 0.0 **** 0.06
13104 H 99.88647954016389 2.905571133558169 76.42904845800572 H 0.0 **** 0.06
13105 H 99.11407068659436 1.49418011307867 75.66642252572927 H 0.0 **** 0.06
13106 C 28.885745654576944 100.19433333208741 20.40516754722225 C 0.0 **** -0.24
13107 H 28.455831385953807 99.19302415362648 20.404878217249774 H 0.0 **** 0.06
13108 H 29.291393195828924 100.41531280489 21.392660655115748 H 0.0 **** 0.06
13109 H 28.112220866614393 100.92173177488644 20.158894574073628 H 0.0 **** 0.06
13110 H 29.6835371699107 100.24726459494687 19.664236742449987 H 0.0 **** 0.06
13111 C 60.077399139856325 37.42998443207881 27.626022568748056 C 0.0 **** -0.24
13112 H 60.792682570472124 37.48457365838368 28.447106692540927 H 0.0 **** 0.06
13113 H 59.867521845800766 36.385524156084145 27.395200711497438 H 0.0 **** 0.06
13114 H 60.49568374214762 37.92034515357806 26.747191069078355 H 0.0 **** 0.06
13115 H 59.15368538299042 37.9318999413245 27.916384865679845 H 0.0 **** 0.06
13116 C 28.680139268058724 8.288311762397342 17.94523619901767 C 0.0 **** -0.24
13117 H 28.149826861820856 8.829763988997428 17.16188078499789 H 0.0 **** 0.06
13118 H 27.983966763997103 7.632456556684048 18.468279484711076 H 0.0 **** 0.06
13119 H 29.1098199912 9.000125093641572 18.65028140572437 H 0.0 **** 0.06
13120 H 29.476156471455397 7.692057810548647 17.49875850758815 H 0.0 **** 0.06
13121 C 80.62318261004341 91.92614924226577 79.33616495596331 C 0.0 **** -0.24
13122 H 81.58023799763043 92.42788686715873 79.47734492597147 H 0.0 **** 0.06
13123 H 80.09972693636458 92.3743155149391 78.49125806506123 H 0.0 **** 0.06
13124 H 80.02031768269373 92.0361476725053 80.23788427184562 H 0.0 **** 0.06
13125 H 80.79306332154698 90.8680589233342 79.13970165275492 H 0.0 **** 0.06
13126 C 39.96965155708614 104.85331270231278 51.380935149911295 C 0.0 **** -0.24
13127 H 39.43784295140816 103.90358276581989 51.32337539561374 H 0.0 **** 0.06
13128 H 39.298236107078225 105.66292153392335 51.09429195495326 H 0.0 **** 0.06
13129 H 40.82443587211921 104.83306902779952 50.70543800212701 H 0.0 **** 0.06
13130 H 40.31773773693854 105.01374328838108 52.402329599951685 H 0.0 **** 0.06
13131 C 60.099017219471264 33.71010900910935 88.64525613878521 C 0.0 **** -0.24
13132 H 60.416278989633014 32.715847160333794 88.33135042824708 H 0.0 **** 0.06
13133 H 60.80310307657152 34.45282506888657 88.26790547610219 H 0.0 **** 0.06
13134 H 60.07285800793629 33.75535770001712 89.73479907884487 H 0.0 **** 0.06
13135 H 59.104911564401604 33.91670788435163 88.25009001668244 H 0.0 **** 0.06
13136 C 17.924127609819806 114.70642154883045 46.56810730295359 C 0.0 **** -0.24
13137 H 18.530982413869452 114.3177687123973 45.75053365520597 H 0.0 **** 0.06
13138 H 17.495689814658903 115.6653098569517 46.27825444638819 H 0.0 **** 0.06
13139 H 18.548627006686075 114.83934261454154 47.452267942356116 H 0.0 **** 0.06
13140 H 17.123158335762525 114.00258448438963 46.79223678863923 H 0.0 **** 0.06
13141 C 115.803390567859 4.332548326349741 22.428871368897944 C 0.0 **** -0.24
13142 H 114.86410548216725 3.845738661350417 22.166314038678934 H 0.0 **** 0.06
13143 H 115.8186354722302 4.538380653172464 23.499436243009825 H 0.0 **** 0.06
13144 H 115.89380710691637 5.268350758355616 21.876872133885172 H 0.0 **** 0.06
13145 H 116.63633201393517 3.67699722357429 22.1727760236962 H 0.0 **** 0.06
13146 C 39.91854510728226 122.69971152188373 96.8258692190389 C 0.0 **** -0.24
13147 H 39.81396633501424 123.47141523515228 97.589498194611 H 0.0 **** 0.06
13148 H 39.91980646075263 121.71760041758012 97.30086898012553 H 0.0 **** 0.06
13149 H 40.855266769680604 122.84529492252119 96.28899176386204 H 0.0 **** 0.06
13150 H 39.084054116143335 122.76404673210732 96.12752099516291 H 0.0 **** 0.06
13151 C 82.53345276882453 92.42691562236797 64.92930768839173 C 0.0 **** -0.24
13152 H 82.01787391493309 93.38749750870817 64.91104850476697 H 0.0 **** 0.06
13153 H 83.6032543624998 92.58748383389765 64.79391974061886 H 0.0 **** 0.06
13154 H 82.15596674709002 91.79711667619752 64.12453381470402 H 0.0 **** 0.06
13155 H 82.35752025110213 91.93844560261941 65.88749881511669 H 0.0 **** 0.06
13156 C 94.46763512740479 47.4514829468564 8.620547004390318 C 0.0 **** -0.24
13157 H 93.49759067162641 47.07290951621462 8.29801267452089 H 0.0 **** 0.06
13158 H 94.99939740838379 47.863307826766516 7.762061893720926 H 0.0 **** 0.06
13159 H 95.04897443000606 46.63806788428087 9.052973803274682 H 0.0 **** 0.06
13160 H 94.32279039450962 48.231772692118284 9.366951266198015 H 0.0 **** 0.06
13161 C 68.89636152412275 60.435149662503605 129.43905527321928 C 0.0 **** -0.24
13162 H 68.7667228680976 59.47848452042868 128.93377015460484 H 0.0 **** 0.06
13163 H 67.94880493692929 60.74601688797544 129.878174287251 H 0.0 **** 0.06
13164 H 69.22598709723503 61.184774799556976 128.71886524960604 H 0.0 **** 0.06
13165 H 69.64449727176712 60.33228652025049 130.2245452482253 H 0.0 **** 0.06
13166 C 90.69776395199517 29.375551522401906 52.75349789554039 C 0.0 **** -0.24
13167 H 89.62447176202537 29.553126403916167 52.822826943231064 H 0.0 **** 0.06
13168 H 91.02364253312773 28.77992191655852 53.606222935137495 H 0.0 **** 0.06
13169 H 91.22358324172185 30.330714083799762 52.7537542802459 H 0.0 **** 0.06
13170 H 90.9180806173513 28.84097850180109 51.83021643956131 H 0.0 **** 0.06
13171 C 0.4767111448954324 31.54827702606559 86.11700530026346 C 0.0 **** -0.24
13172 H 1.4322543654581352 31.71032150822515 86.61467903619159 H 0.0 **** 0.06
13173 H -0.3036100584098733 31.40929296114041 86.86510202249626 H 0.0 **** 0.06
13174 H 0.5410830190022864 30.658646963790943 85.48875518621925 H 0.0 **** 0.06
13175 H 0.23682125285759525 32.4128702642642 85.49806843389409 H 0.0 **** 0.06
13176 C 73.67359038768612 99.62807243772043 118.8774876672905 C 0.0 **** -0.24
13177 H 73.4783104307786 99.2215384812877 119.86979475128675 H 0.0 **** 0.06
13178 H 74.19679339816204 100.58075470594927 118.9719953226188 H 0.0 **** 0.06
13179 H 72.72903015076866 99.78309379362916 118.35586345415771 H 0.0 **** 0.06
13180 H 74.28988408226357 98.92931142566033 118.31201301235285 H 0.0 **** 0.06
13181 C 60.59103358131449 103.21676391892947 63.02898800091475 C 0.0 **** -0.24
13182 H 61.5321912436134 103.2174396140826 62.47995137337551 H 0.0 **** 0.06
13183 H 60.6851363542809 103.84688100631823 63.913811505260725 H 0.0 **** 0.06
13184 H 60.34891617024232 102.19723344295198 63.33274837074924 H 0.0 **** 0.06
13185 H 59.79727743658506 103.60259675619326 62.389872491892845 H 0.0 **** 0.06
13186 C 110.98578544623803 104.25460054709103 77.90117200064014 C 0.0 **** -0.24
13187 H 109.92548965458212 104.00867088345262 77.85372897753945 H 0.0 **** 0.06
13188 H 111.56249479694219 103.34799222942998 78.0850474101909 H 0.0 **** 0.06
13189 H 111.15818151460303 104.96531646520484 78.70915586502923 H 0.0 **** 0.06
13190 H 111.29839732721501 104.69815733818206 76.9557706768665 H 0.0 **** 0.06
13191 C 85.54701317056383 92.22592784864342 25.348630184242637 C 0.0 **** -0.24
13192 H 86.03831249681605 91.31616751653638 25.694150947380322 H 0.0 **** 0.06
13193 H 84.88145973005943 92.59893792179012 26.127421299629113 H 0.0 **** 0.06
13194 H 84.96831397783988 92.0074080962824 24.45038249591328 H 0.0 **** 0.06
13195 H 86.29958304761314 92.98070826522188 25.1196310695138 H 0.0 **** 0.06
13196 C 75.9790969925115 88.43457099789515 46.31468208274453 C 0.0 **** -0.24
13197 H 75.31265159060723 87.87317134441236 45.6596466324714 H 0.0 **** 0.06
13198 H 76.9883185580071 88.02744073506304 46.24169348879012 H 0.0 **** 0.06
13199 H 75.6283905598178 88.35386516494356 47.34379435212518 H 0.0 **** 0.06
13200 H 75.98684243229143 89.48157834205418 46.01357573179638 H 0.0 **** 0.06
13201 C 40.00939554124636 89.4665197563807 64.97602735249262 C 0.0 **** -0.24
13202 H 39.700184265644396 89.00481456053427 65.91373368571539 H 0.0 **** 0.06
13203 H 39.309248008285124 90.25906136623524 64.71257588095392 H 0.0 **** 0.06
13204 H 40.02138202434173 88.71348576549349 64.18731722346928 H 0.0 **** 0.06
13205 H 41.00888497571759 89.88685896575294 65.09073711397667 H 0.0 **** 0.06
13206 C 51.771195631871564 58.03284996127948 23.954827775518744 C 0.0 **** -0.24
13207 H 50.92951401806502 58.10935918115254 24.64330644627625 H 0.0 **** 0.06
13208 H 52.563038966917446 58.71236261625505 24.273007378589725 H 0.0 **** 0.06
13209 H 51.444034028765174 58.30128930846172 22.950397058703082 H 0.0 **** 0.06
13210 H 52.14819404877045 57.01070194080161 23.95340609202286 H 0.0 **** 0.06
13211 C 95.21786543871501 30.2567063352898 124.60365618571174 C 0.0 **** -0.24
13212 H 95.26295638174805 30.820111747784367 125.535511647417 H 0.0 **** 0.06
13213 H 95.85597423459012 29.376828795493466 124.67884986070356 H 0.0 **** 0.06
13214 H 95.56240123139027 30.885798392608493 123.78219784523135 H 0.0 **** 0.06
13215 H 94.18978619874662 29.946487999263105 124.41630053414825 H 0.0 **** 0.06
13216 C 50.180395645466234 0.4572369202708444 118.90962532101634 C 0.0 **** -0.24
13217 H 49.797837125411064 1.3249253210474592 118.37084766131028 H 0.0 **** 0.06
13218 H 50.38642831724354 -0.3463182516312884 118.20137029129637 H 0.0 **** 0.06
13219 H 49.43784334907262 0.12254019350501721 119.6334979744712 H 0.0 **** 0.06
13220 H 51.09929315802651 0.7286440221302541 119.42851256312159 H 0.0 **** 0.06
13221 C 24.627765970679064 106.81400699433618 67.8262268839457 C 0.0 **** -0.24
13222 H 24.37824746070956 107.86027192131733 68.00284422901251 H 0.0 **** 0.06
13223 H 23.8218197423314 106.33768786054463 67.26785224667539 H 0.0 **** 0.06
13224 H 24.757430540917454 106.30548800001799 68.78291760955572 H 0.0 **** 0.06
13225 H 25.552889532309308 106.75202222702094 67.25358063453346 H 0.0 **** 0.06
13226 C 6.285625404050194 15.972854172533289 55.24251599374897 C 0.0 **** -0.24
13227 H 5.976905653098072 14.936162459271657 55.10633264825587 H 0.0 **** 0.06
13228 H 5.4426755307635375 16.632809241467555 55.03411645454396 H 0.0 **** 0.06
13229 H 7.10368123323731 16.200390511362002 54.56068594147963 H 0.0 **** 0.06
13230 H 6.616917783662103 16.1210430629024 56.270537835106026 H 0.0 **** 0.06
13231 C 54.992001553485764 17.181298643141538 86.33692262359813 C 0.0 **** -0.24
13232 H 54.10096493522238 17.61959068658583 85.8891490064471 H 0.0 **** 0.06
13233 H 54.82413991512148 17.025507125563117 87.40270635238653 H 0.0 **** 0.06
13234 H 55.837651039860575 17.854430570047718 86.19645619743557 H 0.0 **** 0.06
13235 H 55.20622945422262 16.224982274295545 85.8586215252916 H 0.0 **** 0.06
13236 C 119.34383774274144 75.13094420828276 69.97857277545194 C 0.0 **** -0.24
13237 H 119.98797273660628 74.61116674493775 69.26983451065934 H 0.0 **** 0.06
13238 H 119.2159958217879 76.16562071739398 69.66166049845543 H 0.0 **** 0.06
13239 H 119.7988121765641 75.10660523381091 70.96928686378715 H 0.0 **** 0.06
13240 H 118.37125673345658 74.63869739041797 70.01416487881397 H 0.0 **** 0.06
13241 C 80.93629620373916 69.51093335284602 56.5397336288094 C 0.0 **** -0.24
13242 H 79.94080535648902 69.6667720471159 56.124338961772935 H 0.0 **** 0.06
13243 H 81.6829726416659 69.91056870134904 55.85276098423216 H 0.0 **** 0.06
13244 H 81.10700090912316 68.44376273135666 56.681463077444306 H 0.0 **** 0.06
13245 H 81.01375319962328 70.02204771080483 57.498876446962626 H 0.0 **** 0.06
13246 C 58.642534449432645 110.78743758010218 62.766882160444425 C 0.0 **** -0.24
13247 H 58.84057001578262 109.71882171411569 62.681123557311025 H 0.0 **** 0.06
13248 H 57.79202493875678 111.0496967360571 62.13676055440794 H 0.0 **** 0.06
13249 H 59.51983750575923 111.34620134040956 62.44391192956476 H 0.0 **** 0.06
13250 H 58.416402415573174 111.03170886956089 63.80460576820923 H 0.0 **** 0.06
13251 C 31.73003079690659 129.0836681960495 12.105972136595444 C 0.0 **** -0.24
13252 H 32.277772425411285 129.0815545472427 11.162729749038586 H 0.0 **** 0.06
13253 H 30.899434957619718 129.78768686580915 12.040773762117169 H 0.0 **** 0.06
13254 H 32.3984860796659 129.382522194904 12.912477690058996 H 0.0 **** 0.06
13255 H 31.344948831139476 128.08334955850913 12.303840707325229 H 0.0 **** 0.06
13256 C 23.46597531379058 76.92318273097835 112.64304299017 C 0.0 **** -0.24
13257 H 23.334840570784564 77.83705995302894 113.22336413395202 H 0.0 **** 0.06
13258 H 22.5482106313367 76.70347199916408 112.09795618219289 H 0.0 **** 0.06
13259 H 23.69548017428295 76.09658003827911 113.31585723365289 H 0.0 **** 0.06
13260 H 24.285911791765713 77.05535347280241 111.93736847841178 H 0.0 **** 0.06
13261 C 101.2272105011334 116.21324896947252 85.78584748327356 C 0.0 **** -0.24
13262 H 100.35170810459408 115.6917213639542 86.17226430979352 H 0.0 **** 0.06
13263 H 101.40079217904602 115.9124910231296 84.75202999499854 H 0.0 **** 0.06
13264 H 102.09771154556536 115.95780385784941 86.38908966547675 H 0.0 **** 0.06
13265 H 101.0583865044556 117.28921529467628 85.8286539218926 H 0.0 **** 0.06
13266 C 78.95023577175121 24.342413614515863 77.41661746983186 C 0.0 **** -0.24
13267 H 79.30420509403831 23.31626522855896 77.51021030489551 H 0.0 **** 0.06
13268 H 79.54843863722732 24.866974007303583 76.67061125277928 H 0.0 **** 0.06
13269 H 79.04448870828507 24.847812440388623 78.37796699154819 H 0.0 **** 0.06
13270 H 77.9045309235453 24.339819873936847 77.1076803243206 H 0.0 **** 0.06
13271 C 111.13804846384096 79.90630350744064 92.01060068710524 C 0.0 **** -0.24
13272 H 111.87436967422911 79.29051874662738 92.52781700182713 H 0.0 **** 0.06
13273 H 111.18077561021882 79.70080961761502 90.94077165917935 H 0.0 **** 0.06
13274 H 111.35661726381977 80.95904370513892 92.18874166158876 H 0.0 **** 0.06
13275 H 110.14248106326355 79.67264503700733 92.38605862399761 H 0.0 **** 0.06
13276 C 107.14876458052532 63.918809866840604 4.285907801705406 C 0.0 **** -0.24
13277 H 108.03924763914185 63.658220690035904 3.713986771356602 H 0.0 **** 0.06
13278 H 107.26706665226791 63.58357570710767 5.316442693457319 H 0.0 **** 0.06
13279 H 106.27783432805273 63.43387454107685 3.8437915801888494 H 0.0 **** 0.06
13280 H 107.00900252944587 65.00025935661927 4.268469030821009 H 0.0 **** 0.06
13281 C 71.72597058861072 105.19697952065707 64.41097857439837 C 0.0 **** -0.24
13282 H 70.99672751479682 105.41189663295765 63.62894358443407 H 0.0 **** 0.06
13283 H 72.62569292133458 105.78777304250488 64.24020039718394 H 0.0 **** 0.06
13284 H 71.9773087451365 104.13674521030384 64.39203705270481 H 0.0 **** 0.06
13285 H 71.3020796823161 105.45228833759387 65.38244262701025 H 0.0 **** 0.06
13286 C 97.06889319141095 128.32892851835294 95.82821434612798 C 0.0 **** -0.24
13287 H 96.72330156146127 128.13711576563938 96.8436564767639 H 0.0 **** 0.06
13288 H 96.24076548198981 128.71145667491226 95.22982543169793 H 0.0 **** 0.06
13289 H 97.43686580844212 127.40212617016104 95.38756249414318 H 0.0 **** 0.06
13290 H 97.8714830091069 129.06511519740945 95.85080074601571 H 0.0 **** 0.06
13291 C 2.008617887305064 90.82888968966962 107.88197591325795 C 0.0 **** -0.24
13292 H 1.9062806880071719 89.74369802072728 107.88628991691735 H 0.0 **** 0.06
13293 H 2.6671336800845324 91.13399359523379 108.69485904999931 H 0.0 **** 0.06
13294 H 1.028129155457492 91.28574999687068 108.01652323040369 H 0.0 **** 0.06
13295 H 2.4311565643889423 91.14991209360821 106.93022063236756 H 0.0 **** 0.06
13296 C 6.909392616985144 37.13395157433288 67.90780345847674 C 0.0 **** -0.24
13297 H 5.973735248560672 37.51281395401668 67.49608136965117 H 0.0 **** 0.06
13298 H 7.082787628732262 36.1215612634812 67.54279317736342 H 0.0 **** 0.06
13299 H 6.848614027832127 37.122973054463785 68.99625783498936 H 0.0 **** 0.06
13300 H 7.730700479780268 37.77912755912274 67.59534093077355 H 0.0 **** 0.06
13301 C 52.52013022525374 3.2838182538345677 43.35989981083269 C 0.0 **** -0.24
13302 H 52.58157319346519 3.288941490762454 42.27106003618101 H 0.0 **** 0.06
13303 H 52.09126729923203 4.225934665016268 43.70257571399927 H 0.0 **** 0.06
13304 H 53.51852402534253 3.1640066610912356 43.77994200232551 H 0.0 **** 0.06
13305 H 51.88711973360449 2.4572771292594666 43.68355855993781 H 0.0 **** 0.06
13306 C 14.974652028474821 22.250231349531816 99.40173255764871 C 0.0 **** -0.24
13307 H 15.919824731784644 21.738879590603403 99.58666352094444 H 0.0 **** 0.06
13308 H 15.15619643966511 23.319325349096175 99.28826381620942 H 0.0 **** 0.06
13309 H 14.30074956893543 22.08218258640568 100.24193822928217 H 0.0 **** 0.06
13310 H 14.522621446955526 21.859360867236262 98.49006535013277 H 0.0 **** 0.06
13311 C 68.23419248249128 33.00288336184775 83.42740022801908 C 0.0 **** -0.24
13312 H 67.78097180783517 33.98620755488781 83.30359394168696 H 0.0 **** 0.06
13313 H 69.0771723984942 32.903896750023364 82.74195212506983 H 0.0 **** 0.06
13314 H 67.49647431379655 32.23218317830265 83.20930284150025 H 0.0 **** 0.06
13315 H 68.58550857693218 32.891806282887785 84.45270861739206 H 0.0 **** 0.06
13316 C 24.420834951777778 14.801996794186707 52.00666774177978 C 0.0 **** -0.24
13317 H 24.00192389271055 15.15499221340767 52.94940857054033 H 0.0 **** 0.06
13318 H 23.611183463597257 14.524308202273652 51.33163144982534 H 0.0 **** 0.06
13319 H 25.05265057546191 13.933019040177246 52.19354795437032 H 0.0 **** 0.06
13320 H 25.01711052557647 15.594591769740056 51.5548435470497 H 0.0 **** 0.06
13321 C 29.07239120047344 30.175156581055404 126.28205544387973 C 0.0 **** -0.24
13322 H 28.246405049229104 29.54634868477595 125.95191320829386 H 0.0 **** 0.06
13323 H 28.707246154963386 30.902655419349927 127.00763318512995 H 0.0 **** 0.06
13324 H 29.49629127190503 30.697516000637023 125.4241003950585 H 0.0 **** 0.06
13325 H 29.839622325796398 29.554106219458447 126.74457498703649 H 0.0 **** 0.06
13326 C 116.3133717645367 18.15048816095495 39.4049668401297 C 0.0 **** -0.24
13327 H 116.38919049615474 17.63846493190934 38.44618420004957 H 0.0 **** 0.06
13328 H 115.87207470050922 17.478242701887297 40.141992967398465 H 0.0 **** 0.06
13329 H 115.68331790303245 19.0334455868132 39.29559220821881 H 0.0 **** 0.06
13330 H 117.30671201640625 18.452212185251597 39.73625703616119 H 0.0 **** 0.06
13331 C 51.14245505629074 51.39626225575316 11.180422377519506 C 0.0 **** -0.24
13332 H 50.14276816939426 51.6662651381117 10.839176020564139 H 0.0 **** 0.06
13333 H 51.78709136187089 52.27514771339165 11.147866136201458 H 0.0 **** 0.06
13334 H 51.55046234500878 50.62185876551331 10.531807169950781 H 0.0 **** 0.06
13335 H 51.08805683569588 51.023116551881145 12.203199281966846 H 0.0 **** 0.06
13336 C 67.49268522134156 71.42286419401597 67.32647586552935 C 0.0 **** -0.24
13337 H 67.21775739975762 71.25986418155522 66.28493801488048 H 0.0 **** 0.06
13338 H 68.2356687692123 72.21867465350797 67.38594579958408 H 0.0 **** 0.06
13339 H 67.90967304639042 70.50524055558681 67.74033626553683 H 0.0 **** 0.06
13340 H 66.60807726066085 71.70839640942432 67.89522497347775 H 0.0 **** 0.06
13341 C 127.87840455576892 41.31170314959235 69.09193541785363 C 0.0 **** -0.24
13342 H 126.86612594612072 41.67605421884099 68.91930941380973 H 0.0 **** 0.06
13343 H 128.47705961149043 41.46084010807982 68.1938186584826 H 0.0 **** 0.06
13344 H 127.84580764983036 40.24837082889064 69.33421091734716 H 0.0 **** 0.06
13345 H 128.32513365506458 41.85950500453089 69.92254049289325 H 0.0 **** 0.06
13346 C 39.42717579351981 60.8646466125476 3.3085981171076924 C 0.0 **** -0.24
13347 H 39.57677801488231 60.95504561268831 2.233176986212669 H 0.0 **** 0.06
13348 H 39.30366028408909 59.81314089888568 3.5704935188191484 H 0.0 **** 0.06
13349 H 38.5342346124055 61.418480964791826 3.598949701482425 H 0.0 **** 0.06
13350 H 40.29265435985624 61.27090974697268 3.832069785640897 H 0.0 **** 0.06
13351 C 114.87601266903448 117.39350473831223 126.69696320990457 C 0.0 **** -0.24
13352 H 113.93389990210432 117.72859393889695 126.26256908326556 H 0.0 **** 0.06
13353 H 115.70533073664382 117.75492377854201 126.08931836050327 H 0.0 **** 0.06
13354 H 114.89490319783476 116.30391485386099 126.72650165782504 H 0.0 **** 0.06
13355 H 114.96864061471194 117.78598130703378 127.70939130602568 H 0.0 **** 0.06
13356 C 77.26196195468428 59.117748075563924 76.06335499966839 C 0.0 **** -0.24
13357 H 77.29861642282953 59.30353202913196 77.13700916634747 H 0.0 **** 0.06
13358 H 76.72603010284602 59.930388753773656 75.57251218152352 H 0.0 **** 0.06
13359 H 76.74531133302045 58.17582448783665 75.8756620830544 H 0.0 **** 0.06
13360 H 78.27644277950266 59.05975905520219 75.66953731010665 H 0.0 **** 0.06
13361 C 48.736125942482886 108.30068843498964 62.7896156253523 C 0.0 **** -0.24
13362 H 48.65374392229491 108.23119016386164 63.873911995667896 H 0.0 **** 0.06
13363 H 49.00934647849947 107.32671655287561 62.38338811301962 H 0.0 **** 0.06
13364 H 49.502119529515625 109.03125061982928 62.52977686438618 H 0.0 **** 0.06
13365 H 47.77964347118899 108.61283844334591 62.37193626446546 H 0.0 **** 0.06
13366 C 2.323406526585927 34.73753918402022 79.84000853353213 C 0.0 **** -0.24
13367 H 2.3194649488589505 35.0589792395713 78.79901181721907 H 0.0 **** 0.06
13368 H 2.6261849414684946 35.56903759102201 80.47610528469723 H 0.0 **** 0.06
13369 H 3.025347129261803 33.9116230831512 79.96222779966018 H 0.0 **** 0.06
13370 H 1.3232082325901047 34.40888486994484 80.12272782451565 H 0.0 **** 0.06
13371 C 82.69419099996412 51.49332559576473 76.75373888875465 C 0.0 **** -0.24
13372 H 81.95460017937882 51.94443207086087 77.41560886214458 H 0.0 **** 0.06
13373 H 82.18537120094499 50.964390828174004 75.94811436646249 H 0.0 **** 0.06
13374 H 83.30725507197599 50.791574567040215 77.31971542231379 H 0.0 **** 0.06
13375 H 83.32921784801414 52.274140633925896 76.33335295300448 H 0.0 **** 0.06
13376 C 19.22073371298695 97.58775071456142 84.86144713427868 C 0.0 **** -0.24
13377 H 19.12963250763643 98.18001007761299 83.94967028884179 H 0.0 **** 0.06
13378 H 19.913647225245086 96.76336444115444 84.69015013681317 H 0.0 **** 0.06
13379 H 18.24325320461572 97.19195111448113 85.1362597550299 H 0.0 **** 0.06
13380 H 19.59668569491383 98.21878632342947 85.66701504495072 H 0.0 **** 0.06
13381 C 25.678003559438423 26.279567262138556 21.96412548527931 C 0.0 **** -0.24
13382 H 26.766394415741956 26.232266919878015 22.006828203316132 H 0.0 **** 0.06
13383 H 25.33784532450386 25.932716558119523 20.98865667326811 H 0.0 **** 0.06
13384 H 25.353970527185993 27.308292404548325 22.118765692808438 H 0.0 **** 0.06
13385 H 25.257028509334106 25.644027110769116 22.743069758444733 H 0.0 **** 0.06
13386 C 15.268395725448812 107.16280351578428 110.88254185999392 C 0.0 **** -0.24
13387 H 16.176227831348683 107.7466193036841 110.73256709938802 H 0.0 **** 0.06
13388 H 15.44299716167032 106.13260922786742 110.5703710722661 H 0.0 **** 0.06
13389 H 14.45987692159153 107.59032750712004 110.28937572578717 H 0.0 **** 0.06
13390 H 14.994228073776185 107.18215090181212 111.93702097861605 H 0.0 **** 0.06
13391 C 106.06505549186714 111.04720999835114 13.097483429039983 C 0.0 **** -0.24
13392 H 106.67751548553298 111.57488340868618 12.365693123281261 H 0.0 **** 0.06
13393 H 106.70725736109291 110.45698508397531 13.750752706079908 H 0.0 **** 0.06
13394 H 105.36826926602481 110.38751819644476 12.579226525259003 H 0.0 **** 0.06
13395 H 105.50624501685499 111.77055174467552 13.691630770301344 H 0.0 **** 0.06
13396 C 45.26680560284083 98.54088250878317 5.51937125116396 C 0.0 **** -0.24
13397 H 44.33016611680311 98.76129164177206 6.032472425741275 H 0.0 **** 0.06
13398 H 45.30833597714413 97.47932711152447 5.279230178158002 H 0.0 **** 0.06
13399 H 46.10434397894364 98.80039810182689 6.1669000889255585 H 0.0 **** 0.06
13400 H 45.32275804570772 99.12470181848397 4.600492140905061 H 0.0 **** 0.06
13401 C 119.9967361416614 129.39491553358548 61.18137592407922 C 0.0 **** -0.24
13402 H 118.97630905482856 129.2206518960136 60.83926739320154 H 0.0 **** 0.06
13403 H 120.69051969487518 128.8360480824895 60.55348420360528 H 0.0 **** 0.06
13404 H 120.09437450315731 129.06255353018477 62.21495114068901 H 0.0 **** 0.06
13405 H 120.22515416149537 130.45849570047218 61.11879908165096 H 0.0 **** 0.06
13406 C 64.56584048965145 59.767536062803686 79.56716851643723 C 0.0 **** -0.24
13407 H 64.51735200892026 59.04790811864936 78.7504054449412 H 0.0 **** 0.06
13408 H 64.07663128672515 60.694115526085994 79.26417938830458 H 0.0 **** 0.06
13409 H 65.6092203248041 59.9705287602209 79.81053040399142 H 0.0 **** 0.06
13410 H 64.06152622964603 59.35852715149363 80.44175482943074 H 0.0 **** 0.06
13411 C 6.19085835676367 39.95513850642266 119.02886548559752 C 0.0 **** -0.24
13412 H 5.204295667058659 39.93076706622355 119.49229465320596 H 0.0 **** 0.06
13413 H 6.637669704818165 38.96181540374528 119.07573046576147 H 0.0 **** 0.06
13414 H 6.824017764853863 40.664983606493365 119.56132072071645 H 0.0 **** 0.06
13415 H 6.0960435122166245 40.263441014405686 117.98806957218311 H 0.0 **** 0.06
13416 C 8.63422503752804 29.5628111242315 74.79406441485457 C 0.0 **** -0.24
13417 H 9.348574405117631 28.740846513498724 74.82925783211078 H 0.0 **** 0.06
13418 H 8.053914904325723 29.500029800227253 73.8733249596059 H 0.0 **** 0.06
13419 H 9.169771954965313 30.51195068357555 74.82240320197315 H 0.0 **** 0.06
13420 H 7.963336713530339 29.49834885431403 75.65072417385522 H 0.0 **** 0.06
13421 C 30.62011768708389 39.98160095521385 114.69793204670096 C 0.0 **** -0.24
13422 H 31.428143630417708 39.408438500778544 115.15276097706332 H 0.0 **** 0.06
13423 H 29.71247447728443 39.862913463212806 115.29078331288987 H 0.0 **** 0.06
13424 H 30.443007962494995 39.620649123225036 113.68486325226588 H 0.0 **** 0.06
13425 H 30.897157323198208 41.03527766736937 114.66478246259011 H 0.0 **** 0.06
13426 C 66.7862762503633 80.57736183390665 21.8831103175414 C 0.0 **** -0.24
13427 H 67.35341940160959 80.35575732295726 20.978970636174893 H 0.0 **** 0.06
13428 H 66.49541569885247 81.62843775599785 21.881088973101733 H 0.0 **** 0.06
13429 H 67.40397056950258 80.37303217953576 22.75741722481726 H 0.0 **** 0.06
13430 H 65.89418765516564 79.95231597953062 21.91377057001231 H 0.0 **** 0.06
13431 C 77.92945840079723 28.668432475185014 15.173927772807133 C 0.0 **** -0.24
13432 H 78.52055858363995 28.530917699722075 16.078782828822 H 0.0 **** 0.06
13433 H 76.8732124325648 28.72821289823972 15.435771634416994 H 0.0 **** 0.06
13434 H 78.09122204951413 27.82452399951434 14.50204715117053 H 0.0 **** 0.06
13435 H 78.23443611692257 29.5901743411953 14.677907586019103 H 0.0 **** 0.06
13436 C 108.07332212852901 100.72670327791111 3.679916084123665 C 0.0 **** -0.24
13437 H 109.0345517438164 100.74994385259771 4.193955973308647 H 0.0 **** 0.06
13438 H 107.58553629796069 99.76898330987005 3.8660612200691844 H 0.0 **** 0.06
13439 H 108.22979909856129 100.85437464268637 2.6093772574587994 H 0.0 **** 0.06
13440 H 107.4428510983682 101.53430442876642 4.054278514496744 H 0.0 **** 0.06
13441 C 25.55925479134254 84.04625292480222 130.073472650693 C 0.0 **** -0.24
13442 H 24.488839222244735 83.94614374451643 129.89297293524578 H 0.0 **** 0.06
13443 H 25.83125709703691 85.10210833690226 130.0669452940384 H 0.0 **** 0.06
13444 H 26.109748587379897 83.52317171734884 129.29209882835758 H 0.0 **** 0.06
13445 H 25.805237623176964 83.61354214542072 131.04416436438044 H 0.0 **** 0.06
13446 C 14.497617199225953 35.72625122929804 19.560873948941037 C 0.0 **** -0.24
13447 H 14.852985619934238 36.7079020718717 19.246991171793496 H 0.0 **** 0.06
13448 H 14.023846752359777 35.22496385571091 18.716698601098017 H 0.0 **** 0.06
13449 H 13.774956035593974 35.84238400231149 20.36814679799693 H 0.0 **** 0.06
13450 H 15.341672700241773 35.13129789037444 19.910843017172425 H 0.0 **** 0.06
13451 C 9.014895417353898 94.31899715524548 73.04922150549297 C 0.0 **** -0.24
13452 H 8.093982697466373 94.2271765900064 72.47239459950657 H 0.0 **** 0.06
13453 H 9.178820334554104 93.40433902949223 73.61877886955882 H 0.0 **** 0.06
13454 H 8.931601948003959 95.1639823873274 73.73246129188415 H 0.0 **** 0.06
13455 H 9.852959129578437 94.48071440781933 72.3715097695735 H 0.0 **** 0.06
13456 C 56.68228286327441 49.42389167631069 50.24462807101071 C 0.0 **** -0.24
13457 H 57.10645118571931 48.42067802667347 50.19987216139651 H 0.0 **** 0.06
13458 H 56.042167544121256 49.58674443747881 49.376595284668895 H 0.0 **** 0.06
13459 H 57.487111747188976 50.15799576205387 50.24484663896055 H 0.0 **** 0.06
13460 H 56.093305624679076 49.52828079905055 51.155972246600186 H 0.0 **** 0.06
13461 C 30.226297704625118 49.639310846273844 87.27783757261855 C 0.0 **** -0.24
13462 H 29.23219809670195 49.946675028432 87.6035456279502 H 0.0 **** 0.06
13463 H 30.904792176026767 49.643657239747654 88.13029740894392 H 0.0 **** 0.06
13464 H 30.590200691664123 50.33301787019198 86.5199901973467 H 0.0 **** 0.06
13465 H 30.176307062109238 48.63515085303075 86.85677330804204 H 0.0 **** 0.06
13466 C 87.10899418801259 74.51155940729055 46.09339898753581 C 0.0 **** -0.24
13467 H 86.23882977001034 74.95127150727151 45.605482343008504 H 0.0 **** 0.06
13468 H 87.18941690156092 74.89860478069275 47.109112789251725 H 0.0 **** 0.06
13469 H 88.00765770498111 74.76839108717942 45.53315189579152 H 0.0 **** 0.06
13470 H 86.99733579285225 73.42730620319938 46.124814197261486 H 0.0 **** 0.06
13471 C 46.80437231405091 32.23899954069458 38.363646001927265 C 0.0 **** -0.24
13472 H 46.48400859835334 31.466268782401755 39.06231167449688 H 0.0 **** 0.06
13473 H 47.8686768012106 32.433422279078115 38.499871120593326 H 0.0 **** 0.06
13474 H 46.241501117736505 33.15294862324453 38.55203796947649 H 0.0 **** 0.06
13475 H 46.623448549183706 31.903752759585416 37.34255950386955 H 0.0 **** 0.06
13476 C 110.05697413297287 37.22310452321025 87.8645412116948 C 0.0 **** -0.24
13477 H 110.0763037683129 37.40227732496569 86.78932031881799 H 0.0 **** 0.06
13478 H 110.29055155074819 38.14888590523219 88.39079487539088 H 0.0 **** 0.06
13479 H 110.79490835471391 36.46338352298955 88.12014343640865 H 0.0 **** 0.06
13480 H 109.06468427376326 36.879717937992005 88.15720477931976 H 0.0 **** 0.06
13481 C 102.33873133339193 90.59286935058472 45.2425961757512 C 0.0 **** -0.24
13482 H 103.12697673657021 91.14856398595961 44.73404120058197 H 0.0 **** 0.06
13483 H 102.31369507200327 89.57088590714588 44.86398355760576 H 0.0 **** 0.06
13484 H 101.37819276880396 91.07342468487343 45.05636858798519 H 0.0 **** 0.06
13485 H 102.53658499404656 90.57980387496949 46.31392181876751 H 0.0 **** 0.06
13486 C 83.17794624446759 23.159955821261406 43.248117168762064 C 0.0 **** -0.24
13487 H 82.58544001694239 23.975807485658493 42.83332814207091 H 0.0 **** 0.06
13488 H 83.00411409370469 22.253598317394562 42.66731945875483 H 0.0 **** 0.06
13489 H 82.88462185388539 22.98925151626679 44.283299393246125 H 0.0 **** 0.06
13490 H 84.23440521936197 23.421152876473627 43.20720402995249 H 0.0 **** 0.06
13491 C 74.09140766741191 78.86497086540959 27.851303373069747 C 0.0 **** -0.24
13492 H 73.34325243096549 79.65550053219562 27.903858300924597 H 0.0 **** 0.06
13493 H 73.63414167120564 77.95709814445803 27.457376446657882 H 0.0 **** 0.06
13494 H 74.4854698166491 78.6707116086616 28.848797146729424 H 0.0 **** 0.06
13495 H 74.90426404908615 79.17742044478103 27.194161569594307 H 0.0 **** 0.06
13496 C 87.09574646020403 65.0893946591546 36.187885717655604 C 0.0 **** -0.24
13497 H 86.6121026997287 65.46687484427194 37.08936059029037 H 0.0 **** 0.06
13498 H 86.50059164613194 65.35971439752603 35.31589865909092 H 0.0 **** 0.06
13499 H 87.17974190175181 64.00425583787185 36.24915550655703 H 0.0 **** 0.06
13500 H 88.09059713840205 65.52613552181417 36.1000676039215 H 0.0 **** 0.06
13501 C 7.146162470215671 123.01365178960162 94.23571672522525 C 0.0 **** -0.24
13502 H 7.692348662983136 123.32929376546087 95.12432137613791 H 0.0 **** 0.06
13503 H 6.399829699427926 123.7666141099944 93.9814832955308 H 0.0 **** 0.06
13504 H 6.65095040708411 122.063215154967 94.4320802425844 H 0.0 **** 0.06
13505 H 7.841606584640061 122.89673742610694 93.40433233286822 H 0.0 **** 0.06
13506 C 15.838077625087397 41.28738922986884 43.040091420162184 C 0.0 **** -0.24
13507 H 16.287127060280362 41.83041493199544 43.87212399181203 H 0.0 **** 0.06
13508 H 16.615858190021186 40.99646994409509 42.33440820399346 H 0.0 **** 0.06
13509 H 15.112023693829098 41.92760908831686 42.53845736699668 H 0.0 **** 0.06
13510 H 15.336564162978217 40.39607723689911 43.41722753981952 H 0.0 **** 0.06
13511 C 100.57678305275783 122.01894397542992 17.5175331069523 C 0.0 **** -0.24
13512 H 101.0900027205031 122.27074972349467 16.589839262437636 H 0.0 **** 0.06
13513 H 99.98887558597232 122.87498150593728 17.851013410396206 H 0.0 **** 0.06
13514 H 101.31233197956072 121.76420035475124 18.281022448761107 H 0.0 **** 0.06
13515 H 99.9174632778176 121.16767237173102 17.348789081574125 H 0.0 **** 0.06
13516 C 96.99938632441778 114.46788490550745 39.55234104455263 C 0.0 **** -0.24
13517 H 97.2099433333317 115.25383529575868 40.27740599419028 H 0.0 **** 0.06
13518 H 97.66627585504355 114.57497013807256 38.69684377655465 H 0.0 **** 0.06
13519 H 95.96489915126963 114.54840973336815 39.219660316507955 H 0.0 **** 0.06
13520 H 97.15814357089675 113.49383096016709 40.01679944705037 H 0.0 **** 0.06
13521 C 2.9370407653299466 34.06612295205912 12.186821230130533 C 0.0 **** -0.24
13522 H 3.900047574061741 34.4040122686604 12.57029508027361 H 0.0 **** 0.06
13523 H 2.170064838793895 34.222785279261444 12.945559876894094 H 0.0 **** 0.06
13524 H 2.9951438370958385 33.005458242172374 11.941387114629265 H 0.0 **** 0.06
13525 H 2.683993483092941 34.633767273090825 11.291615978897966 H 0.0 **** 0.06
13526 C 82.64158429804183 14.559081061771536 93.25647196699487 C 0.0 **** -0.24
13527 H 83.21361634028537 14.60399046628524 92.32960467882423 H 0.0 **** 0.06
13528 H 82.28598265484443 13.541071367044154 93.41470972326412 H 0.0 **** 0.06
13529 H 81.79015533192708 15.236548044567485 93.19179839416279 H 0.0 **** 0.06
13530 H 83.27855273626834 14.855636512038416 94.0902942440811 H 0.0 **** 0.06
13531 C 4.230649404162364 29.07926381427683 124.98841385889791 C 0.0 **** -0.24
13532 H 5.181371321125255 29.547685798001282 124.73380405496479 H 0.0 **** 0.06
13533 H 3.868284365722502 29.482872951403863 125.93397122011089 H 0.0 **** 0.06
13534 H 4.370392239931618 28.002587813045068 125.08137169125112 H 0.0 **** 0.06
13535 H 3.503644376301736 29.28574633085441 124.20240483945754 H 0.0 **** 0.06
13536 C 10.727359838670896 48.18799704366367 61.25561300251772 C 0.0 **** -0.24
13537 H 10.174906217900507 48.50660587374057 60.37189876385921 H 0.0 **** 0.06
13538 H 10.325567268088317 47.23972974766539 61.61297465318924 H 0.0 **** 0.06
13539 H 10.628784519317126 48.942221786965945 62.036482021816454 H 0.0 **** 0.06
13540 H 11.779863452408033 48.064362858271664 61.00127035840501 H 0.0 **** 0.06
13541 C 58.87159183674848 16.479537741341012 37.668703200464215 C 0.0 **** -0.24
13542 H 58.19621576269965 15.816143873380568 37.12733800834989 H 0.0 **** 0.06
13543 H 58.73410015114757 16.34056612857342 38.74133707728377 H 0.0 **** 0.06
13544 H 58.65343288806754 17.513955320427378 37.40455101904821 H 0.0 **** 0.06
13545 H 59.902586100638786 16.245392497950824 37.400314680300674 H 0.0 **** 0.06
13546 C 122.57774382418921 22.269334215623275 62.117078078698796 C 0.0 **** -0.24
13547 H 122.10178745343731 21.289064916078893 62.1103646688174 H 0.0 **** 0.06
13548 H 123.55333534123609 22.203009880941885 61.63488955057676 H 0.0 **** 0.06
13549 H 122.70363034365755 22.60412372072335 63.14736450243669 H 0.0 **** 0.06
13550 H 121.95322078112292 22.981068056300685 61.57742507673288 H 0.0 **** 0.06
13551 C 8.732205857428738 101.02435040505614 91.99673164657045 C 0.0 **** -0.24
13552 H 8.012608929327072 100.21496617951465 92.1197800272179 H 0.0 **** 0.06
13553 H 9.068615428422362 101.05553621466443 90.96033040914878 H 0.0 **** 0.06
13554 H 9.587271071472486 100.8533497776338 92.65186355482817 H 0.0 **** 0.06
13555 H 8.260156423967857 101.97214697747427 92.25489136875044 H 0.0 **** 0.06
13556 C 29.36043482514927 42.45836592731598 13.119580338262978 C 0.0 **** -0.24
13557 H 29.121962106099886 42.547904264968 14.178873525101892 H 0.0 **** 0.06
13558 H 28.718610716408342 41.70132496463407 12.66593023356549 H 0.0 **** 0.06
13559 H 30.40426801674664 42.16503913234493 13.005338658455713 H 0.0 **** 0.06
13560 H 29.195321663020252 43.41658158993715 12.626881787189717 H 0.0 **** 0.06
13561 C 88.2145386606996 39.931514369694156 7.294713883137959 C 0.0 **** -0.24
13562 H 87.48999516831968 39.73741965698542 6.503105074629801 H 0.0 **** 0.06
13563 H 88.63862479176845 40.927426970256164 7.162673842377529 H 0.0 **** 0.06
13564 H 89.01037469599852 39.18859669233558 7.248781765187445 H 0.0 **** 0.06
13565 H 87.71829016056509 39.87408609441452 8.263257048356522 H 0.0 **** 0.06
13566 C 1.0215946066732613 52.86563221271106 78.762496868445 C 0.0 **** -0.24
13567 H 0.5302171277225227 51.892936192092634 78.79837356852414 H 0.0 **** 0.06
13568 H 1.9770022814664685 52.77039845203224 78.24417138046213 H 0.0 **** 0.06
13569 H 1.192486353819703 53.22306334267873 79.77789356999956 H 0.0 **** 0.06
13570 H 0.3873576498035902 53.573410995398774 78.22991440818542 H 0.0 **** 0.06
13571 C 65.38553684459453 126.81970120000557 19.315488246369966 C 0.0 **** -0.24
13572 H 66.3701474176109 126.99884601594292 18.88481370085387 H 0.0 **** 0.06
13573 H 65.48504392654023 126.19403621472328 20.202671517214583 H 0.0 **** 0.06
13574 H 64.75464310146306 126.31538686917804 18.583316388893593 H 0.0 **** 0.06
13575 H 64.93133548862276 127.77179011517948 19.592364337606938 H 0.0 **** 0.06
13576 C 92.30103446362975 21.901919312064194 87.76190584743733 C 0.0 **** -0.24
13577 H 91.9087050697974 21.32440984517504 88.59829622860644 H 0.0 **** 0.06
13578 H 93.20581464891947 21.424794698175788 87.38436058038705 H 0.0 **** 0.06
13579 H 92.53593387420369 22.91226768580512 88.09672505132369 H 0.0 **** 0.06
13580 H 91.55521295320773 21.945744743427753 86.96891340450719 H 0.0 **** 0.06
13581 C 11.858397579617161 103.15506200557323 52.311998711390174 C 0.0 **** -0.24
13582 H 12.079132713319012 102.46822917533396 53.12926803660105 H 0.0 **** 0.06
13583 H 12.120329780782583 104.17063747007259 52.60968730124796 H 0.0 **** 0.06
13584 H 10.795143214480618 103.10876284193037 52.07608342215292 H 0.0 **** 0.06
13585 H 12.438158930493245 102.87234005703473 51.43344675809362 H 0.0 **** 0.06
13586 C 36.544332659626264 104.01663552463984 55.07513178929361 C 0.0 **** -0.24
13587 H 36.442036175631586 104.94309250550504 55.63976470842334 H 0.0 **** 0.06
13588 H 36.71675009140387 103.18907478296944 55.76365698740341 H 0.0 **** 0.06
13589 H 37.38631957133106 104.10016900802975 54.3887990681597 H 0.0 **** 0.06
13590 H 35.63137379294176 103.83317459064796 54.50876737223609 H 0.0 **** 0.06
13591 C 38.90322705886691 114.33522432198474 102.20117815016935 C 0.0 **** -0.24
13592 H 39.534887691593646 113.93988094033132 102.99566467344465 H 0.0 **** 0.06
13593 H 39.525342911355516 114.82400453131346 101.4510946426381 H 0.0 **** 0.06
13594 H 38.203588371510996 115.05839150268211 102.6205603377015 H 0.0 **** 0.06
13595 H 38.34786234086985 113.5190912181409 101.73791546751359 H 0.0 **** 0.06
13596 C 73.24968640899715 28.80677083655599 116.09650373650561 C 0.0 **** -0.24
13597 H 74.28902755282326 29.135480266354698 116.09990634383439 H 0.0 **** 0.06
13598 H 72.8593559754967 28.825749468718108 117.11450839609753 H 0.0 **** 0.06
13599 H 73.192020167234 27.79153564761696 115.70450429472496 H 0.0 **** 0.06
13600 H 72.66026326103986 29.473924127465274 115.468170015657 H 0.0 **** 0.06
13601 C 108.3445174869975 31.260767522470275 1.0621235437267273 C 0.0 **** -0.24
13602 H 109.30482378037381 31.746315001048153 1.2375600658290864 H 0.0 **** 0.06
13603 H 108.22703474369017 31.06301112190232 -0.0035530991765426734 H 0.0 **** 0.06
13604 H 107.53994809877332 31.914028731801885 1.4013320634676347 H 0.0 **** 0.06
13605 H 108.30655881435598 30.32180150999043 1.6139037588928318 H 0.0 **** 0.06
13606 C 33.1504475781504 96.27009369027938 36.21977794229739 C 0.0 **** -0.24
13607 H 32.86666269646427 97.31497958618344 36.09574950687147 H 0.0 **** 0.06
13608 H 32.44274138097738 95.63567015831333 35.68549128754927 H 0.0 **** 0.06
13609 H 33.1404483863532 96.01462190013036 37.27905015106277 H 0.0 **** 0.06
13610 H 34.15248915252203 96.11598625660542 35.81786361962706 H 0.0 **** 0.06
13611 C 100.4267060677486 8.079354261968149 6.791521633747351 C 0.0 **** -0.24
13612 H 99.58707429436575 8.448624054972953 6.203364572920464 H 0.0 **** 0.06
13613 H 100.97050274296222 8.92236333924879 7.218718759912605 H 0.0 **** 0.06
13614 H 101.09458766979799 7.504269462915033 6.149475560595306 H 0.0 **** 0.06
13615 H 100.05590622603896 7.441355808939136 7.593633789668331 H 0.0 **** 0.06
13616 C 24.56929303261966 4.9572048109777604 94.34077688049177 C 0.0 **** -0.24
13617 H 24.578649761556015 5.984286321367218 93.97679273685532 H 0.0 **** 0.06
13618 H 24.8483334071378 4.941583950446802 95.39466680183324 H 0.0 **** 0.06
13619 H 25.280240274800214 4.361527642916368 93.76753849778373 H 0.0 **** 0.06
13620 H 23.568233478377216 4.5402445031307295 94.2232888640064 H 0.0 **** 0.06
13621 C 32.56627380604988 67.48467076297166 24.040980809560722 C 0.0 **** -0.24
13622 H 31.652482499929818 67.60347038250998 23.458998375335966 H 0.0 **** 0.06
13623 H 33.072467092911666 66.56708900431033 23.740595124323647 H 0.0 **** 0.06
13624 H 32.31797480409165 67.4331915200635 25.10100578785267 H 0.0 **** 0.06
13625 H 33.222575617174016 68.33684195309266 23.863758694319188 H 0.0 **** 0.06
13626 C 69.05334748701584 48.3681981075475 73.67536862035801 C 0.0 **** -0.24
13627 H 69.90193314332214 47.69249833352859 73.56784803627296 H 0.0 **** 0.06
13628 H 68.9159609715273 48.92893765801668 72.75038612540166 H 0.0 **** 0.06
13629 H 69.24200286791137 49.0603635154574 74.49605228095163 H 0.0 **** 0.06
13630 H 68.15406641865684 47.78995828080619 73.88641293991392 H 0.0 **** 0.06
13631 C 130.22290882387753 34.18742813594753 111.20769012133944 C 0.0 **** -0.24
13632 H 129.73776532148864 35.085929741264295 110.82527259781024 H 0.0 **** 0.06
13633 H 129.94425190974718 34.04049251668181 112.25162726999973 H 0.0 **** 0.06
13634 H 131.3046214825577 34.29789660579104 111.13122500727232 H 0.0 **** 0.06
13635 H 129.9032972682631 33.32620017706091 110.62106646016846 H 0.0 **** 0.06
13636 C 59.057107052453986 2.078750994937593 17.02264440611168 C 0.0 **** -0.24
13637 H 59.40396508273888 2.7132254301538694 16.206835491672027 H 0.0 **** 0.06
13638 H 58.81201888216273 2.6988041995176957 17.885293996194463 H 0.0 **** 0.06
13639 H 59.84248860925234 1.372617342727665 17.293405522085372 H 0.0 **** 0.06
13640 H 58.17010204073212 1.5311742608380712 16.70448519343085 H 0.0 **** 0.06
13641 C 64.25409230453067 57.41516678784481 92.75566945520569 C 0.0 **** -0.24
13642 H 64.4103724901388 56.424482193148066 93.18176682660832 H 0.0 **** 0.06
13643 H 63.19380150537046 57.664377461065 92.79563094892431 H 0.0 **** 0.06
13644 H 64.5896994949249 57.421234884571064 91.71884235392947 H 0.0 **** 0.06
13645 H 64.82210872361156 58.14926957459082 93.32604726633255 H 0.0 **** 0.06
13646 C 29.597517070988857 79.90406677973839 24.4463625829506 C 0.0 **** -0.24
13647 H 29.75109415659861 79.17689482530378 25.24395804473869 H 0.0 **** 0.06
13648 H 29.533305794807006 80.9044220596537 24.874635514553518 H 0.0 **** 0.06
13649 H 28.67100507233846 79.67410264309711 23.918900203793243 H 0.0 **** 0.06
13650 H 30.433507401306485 79.85983072816845 23.74875038747922 H 0.0 **** 0.06
13651 C 100.25091280771841 121.46438316446915 52.051552990890315 C 0.0 **** -0.24
13652 H 101.12412018217191 122.10658844602162 52.16560875534819 H 0.0 **** 0.06
13653 H 99.42287843953886 121.87209371617166 52.632231657770916 H 0.0 **** 0.06
13654 H 100.48734860180889 120.46266507446018 52.40874675817659 H 0.0 **** 0.06
13655 H 99.9686885587771 121.41850400168408 50.999129067149 H 0.0 **** 0.06
13656 C 34.47453680063109 38.34167744875768 41.44608037879714 C 0.0 **** -0.24
13657 H 33.565820112263694 38.75997046134114 41.01068110350434 H 0.0 **** 0.06
13658 H 34.21916255834592 37.476102304012585 42.057186034754466 H 0.0 **** 0.06
13659 H 34.95818881018037 39.0956867194528 42.06808704462717 H 0.0 **** 0.06
13660 H 35.15221834968098 38.038695306234246 40.648978180176485 H 0.0 **** 0.06
13661 C 12.214923470050962 80.9347666112509 92.05014153560865 C 0.0 **** -0.24
13662 H 11.668601237327948 80.57997928747128 92.92412691741089 H 0.0 **** 0.06
13663 H 11.523049206997939 81.4227690736328 91.36257470001999 H 0.0 **** 0.06
13664 H 12.688597429999618 80.09046552557047 91.54984153264016 H 0.0 **** 0.06
13665 H 12.977873349803644 81.64627731119921 92.36343434500122 H 0.0 **** 0.06
13666 C 38.05526015246557 9.43961000532957 13.7706626626061 C 0.0 **** -0.24
13667 H 37.82267370778266 10.438221132463184 14.139385846047048 H 0.0 **** 0.06
13668 H 37.14519819252836 8.83785614080162 13.753570977961914 H 0.0 **** 0.06
13669 H 38.78909658242136 8.971760396188188 14.427293710256976 H 0.0 **** 0.06
13670 H 38.46269720700933 9.510320206347046 12.762573611020485 H 0.0 **** 0.06
13671 C 102.26048141225486 98.04805145395112 127.17234240658414 C 0.0 **** -0.24
13672 H 101.33900153603261 97.99432690449207 127.75247343139395 H 0.0 **** 0.06
13673 H 103.04882783119635 98.48663509272072 127.7842989395908 H 0.0 **** 0.06
13674 H 102.09844099651517 98.6667525513794 126.29026119142452 H 0.0 **** 0.06
13675 H 102.55475250184985 97.0448076571312 126.86459110610028 H 0.0 **** 0.06
13676 C 86.62809596287012 88.23635243158483 121.88425438681475 C 0.0 **** -0.24
13677 H 87.64182218497393 88.6357696196871 121.83787988364071 H 0.0 **** 0.06
13678 H 85.98825506376359 88.93271071698595 122.42655895879193 H 0.0 **** 0.06
13679 H 86.63885594722903 87.27646014130775 122.39851051371897 H 0.0 **** 0.06
13680 H 86.24461049089165 88.10279780635298 120.87257383401919 H 0.0 **** 0.06
13681 C 71.51935485444048 36.745779030692375 106.24107312009627 C 0.0 **** -0.24
13682 H 70.53176378040868 36.944715322610335 105.82552930394293 H 0.0 **** 0.06
13683 H 71.5057351947037 36.929743186246725 107.31469506710643 H 0.0 **** 0.06
13684 H 72.25082453079229 37.40191723338171 105.76832128800763 H 0.0 **** 0.06
13685 H 71.78968203462905 35.70596291252181 106.0530911761738 H 0.0 **** 0.06
13686 C 32.848650477986666 89.11479098302058 69.56319127935015 C 0.0 **** -0.24
13687 H 31.778654139211767 89.21401224511153 69.37852810779127 H 0.0 **** 0.06
13688 H 33.03553363477175 89.13910727350297 70.63712792346055 H 0.0 **** 0.06
13689 H 33.377071541495525 89.93830003081801 69.08271702840347 H 0.0 **** 0.06
13690 H 33.201787219037016 88.16855625457589 69.15343190732976 H 0.0 **** 0.06
13691 C 122.83270634746827 66.46083385344771 96.77077693678135 C 0.0 **** -0.24
13692 H 122.32067525157764 65.70959454444487 97.37292906392702 H 0.0 **** 0.06
13693 H 122.35677847232523 67.43058650187278 96.91896591108929 H 0.0 **** 0.06
13694 H 122.77476896410053 66.18336878046163 95.71849378246748 H 0.0 **** 0.06
13695 H 123.87731396962558 66.51850975068633 97.0740273055898 H 0.0 **** 0.06
13696 C 60.39822389559471 125.40357563368325 97.77667483506303 C 0.0 **** -0.24
13697 H 60.795904690153705 126.41307297761495 97.66948993580485 H 0.0 **** 0.06
13698 H 61.15064409925017 124.76450085923568 98.24054532390676 H 0.0 **** 0.06
13699 H 60.14156010634389 125.00884355623185 96.79395121234347 H 0.0 **** 0.06
13700 H 59.507273926654264 125.4299969485128 98.40330828761594 H 0.0 **** 0.06
13701 C 84.90132377206982 20.290834847460033 108.99149975608172 C 0.0 **** -0.24
13702 H 85.06330647097732 20.672711630357668 110.00028035033033 H 0.0 **** 0.06
13703 H 85.86260118612589 20.165646464212188 108.49300694947878 H 0.0 **** 0.06
13704 H 84.28886599403131 20.996309399073738 108.43013393313404 H 0.0 **** 0.06
13705 H 84.39191109994022 19.329331623400563 109.04568170322571 H 0.0 **** 0.06
13706 C 100.50931480654408 103.52229112561496 21.5720668345567 C 0.0 **** -0.24
13707 H 101.43487910094825 103.65180826195397 21.011463145132502 H 0.0 **** 0.06
13708 H 99.80675822848531 102.93404834067142 20.98144159815343 H 0.0 **** 0.06
13709 H 100.07516264028133 104.50003459475916 21.78592003718513 H 0.0 **** 0.06
13710 H 100.719955342756 103.00590759694856 22.50776710653441 H 0.0 **** 0.06
13711 C 42.94751917179615 112.20115736350408 49.00921281247126 C 0.0 **** -0.24
13712 H 42.678673160213236 112.18343953614271 47.95356168253254 H 0.0 **** 0.06
13713 H 42.27930052239463 112.87735661879924 49.542734968005306 H 0.0 **** 0.06
13714 H 43.975478420696284 112.54576863629904 49.11675937236545 H 0.0 **** 0.06
13715 H 42.85552037138242 111.19722213729676 49.42352881100143 H 0.0 **** 0.06
13716 C 83.13787655054023 17.507568240950377 60.2076386303724 C 0.0 **** -0.24
13717 H 83.24735380771926 17.241306146016512 61.25882923359518 H 0.0 **** 0.06
13718 H 82.22663816489154 17.059570264652066 59.81191288891736 H 0.0 **** 0.06
13719 H 83.99785019459375 17.139148042457634 59.647724889627 H 0.0 **** 0.06
13720 H 83.08071552922593 18.593013201167764 60.11258885735782 H 0.0 **** 0.06
13721 C 14.162371519386738 107.99634032823901 14.601428062345235 C 0.0 **** -0.24
13722 H 14.778262184922056 108.49303609074875 15.350987575735275 H 0.0 **** 0.06
13723 H 14.497378112020527 108.28832915323807 13.605170723276473 H 0.0 **** 0.06
13724 H 13.120376212144834 108.28829523089888 14.734693288342498 H 0.0 **** 0.06
13725 H 14.25399556039784 106.91541719694686 14.712705862746333 H 0.0 **** 0.06
13726 C 30.21167851094424 105.62493494398822 51.856263558332486 C 0.0 **** -0.24
13727 H 30.75266711395969 105.72041655123631 50.914215721250855 H 0.0 **** 0.06
13728 H 29.894785116324584 104.59023975708689 51.98954879470267 H 0.0 **** 0.06
13729 H 29.33717252298925 106.27391479759036 51.83926969979578 H 0.0 **** 0.06
13730 H 30.864084653059223 105.91494985630311 52.6806161000207 H 0.0 **** 0.06
13731 C 6.930082656236586 46.42374800553509 114.68662336324756 C 0.0 **** -0.24
13732 H 7.222370200657831 46.92723456506171 113.76442337567782 H 0.0 **** 0.06
13733 H 6.456052459053254 45.47232295306864 114.4457952072578 H 0.0 **** 0.06
13734 H 6.2273865400670765 47.05138385931835 115.23537094990202 H 0.0 **** 0.06
13735 H 7.813799536398459 46.24488620306582 115.29811443590812 H 0.0 **** 0.06
13736 C 54.4103951663252 110.4721462711031 8.961720305595804 C 0.0 **** -0.24
13737 H 54.03767513239772 110.97665731902794 9.852780803790438 H 0.0 **** 0.06
13738 H 55.315959771775354 109.91783226707028 9.209986789875245 H 0.0 **** 0.06
13739 H 54.63615211367207 111.21235808003546 8.19276460849295 H 0.0 **** 0.06
13740 H 53.65229948676294 109.78290543063927 8.590174268519604 H 0.0 **** 0.06
13741 C 38.67768157681206 128.64753379541463 128.79962508196428 C 0.0 **** -0.24
13742 H 38.85976951267621 129.0289853377071 129.8043012339645 H 0.0 **** 0.06
13743 H 37.634496632564264 128.8185284376219 128.53141145931332 H 0.0 **** 0.06
13744 H 38.88941468785515 127.57889897464567 128.77329742119764 H 0.0 **** 0.06
13745 H 39.324902454262656 129.16454405436713 128.0920850300048 H 0.0 **** 0.06
13746 C 91.8067872327344 78.7942966931588 48.34147057680422 C 0.0 **** -0.24
13747 H 91.64570197802436 77.74178318594778 48.10790187630185 H 0.0 **** 0.06
13748 H 92.02674196630693 79.34034375321806 47.42277196995996 H 0.0 **** 0.06
13749 H 92.64506248536136 78.88905697270201 49.03144270666665 H 0.0 **** 0.06
13750 H 90.90812704710294 79.20585062356741 48.80118104422331 H 0.0 **** 0.06
13751 C 52.2474279767614 126.14176054802788 15.774529200882967 C 0.0 **** -0.24
13752 H 52.24622617119928 126.49242691438413 14.742984695748135 H 0.0 **** 0.06
13753 H 53.1332725135609 126.5204584420332 16.28608362366691 H 0.0 **** 0.06
13754 H 52.257202767667266 125.05193647404599 15.788034934500956 H 0.0 **** 0.06
13755 H 51.35277345204463 126.50297822634367 16.281621436802993 H 0.0 **** 0.06
13756 C 43.89828862499746 74.01494698456784 35.40670216397487 C 0.0 **** -0.24
13757 H 44.043099241518206 73.58097582759605 36.396109257594645 H 0.0 **** 0.06
13758 H 44.700209395212966 73.68563180355684 34.74469449533976 H 0.0 **** 0.06
13759 H 43.912517403010696 75.10275036285405 35.48060663502301 H 0.0 **** 0.06
13760 H 42.93950954511314 73.69034455990527 35.00428655124384 H 0.0 **** 0.06
13761 C 64.9507004762878 1.2591993860151298 126.38209020174887 C 0.0 **** -0.24
13762 H 65.59818370359221 0.9989243796040803 125.54451400585302 H 0.0 **** 0.06
13763 H 65.56226447087784 1.5674946094162223 127.23097894181817 H 0.0 **** 0.06
13764 H 64.35199040744106 0.3917814470027974 126.6613837485288 H 0.0 **** 0.06
13765 H 64.29209533643461 2.077318385117831 126.09208849290596 H 0.0 **** 0.06
13766 C 130.74016222340504 128.49764434074484 114.30550758473201 C 0.0 **** -0.24
13767 H 130.74742811942025 129.53878550343225 114.62812152746166 H 0.0 **** 0.06
13768 H 129.9684943078927 127.9541900827823 114.85019055054723 H 0.0 **** 0.06
13769 H 131.713136254037 128.04901441426364 114.50570795994649 H 0.0 **** 0.06
13770 H 130.53223391843989 128.4511412215672 113.23657365565087 H 0.0 **** 0.06
13771 C 53.84608383130377 70.76032109804848 97.0227011437307 C 0.0 **** -0.24
13772 H 54.747813149300754 71.37108281892054 97.06478221579206 H 0.0 **** 0.06
13773 H 53.08819990720113 71.27329418458615 96.43121741661582 H 0.0 **** 0.06
13774 H 53.471685190693975 70.5966585393341 98.03308309095289 H 0.0 **** 0.06
13775 H 54.07976612132168 69.80026989655491 96.56126446275721 H 0.0 **** 0.06
13776 C 19.725509315586038 45.032515791620426 104.2468834937826 C 0.0 **** -0.24
13777 H 19.225239807204474 44.49650093472519 105.0531228713267 H 0.0 **** 0.06
13778 H 20.141579212176282 44.31654202037373 103.53748169016262 H 0.0 **** 0.06
13779 H 20.52775560008928 45.643365353994454 104.65932877570725 H 0.0 **** 0.06
13780 H 19.007246852307276 45.6739295491559 103.7359041277773 H 0.0 **** 0.06
13781 C 97.56599881507549 32.48021475951498 85.3788232532655 C 0.0 **** -0.24
13782 H 96.48159686100794 32.37986252766859 85.41226343959195 H 0.0 **** 0.06
13783 H 97.99327197435883 31.632188113869745 84.84336929335393 H 0.0 **** 0.06
13784 H 97.96021853696013 32.50423924168297 86.39569552243898 H 0.0 **** 0.06
13785 H 97.82976372676742 33.405048015375826 84.86498374955434 H 0.0 **** 0.06
13786 C 66.20223508824924 18.549775118619834 13.492682316893678 C 0.0 **** -0.24
13787 H 66.90629965133554 18.02367404808689 14.137962308439839 H 0.0 **** 0.06
13788 H 66.66747498995522 18.73487309716677 12.523830360441949 H 0.0 **** 0.06
13789 H 65.92814012867937 19.499048427762602 13.95269057064472 H 0.0 **** 0.06
13790 H 65.30868028118142 17.940143367124108 13.357432844780192 H 0.0 **** 0.06
13791 C 91.32153989447832 103.23342798740794 89.71804206407036 C 0.0 **** -0.24
13792 H 91.30155648384196 104.26478263695678 89.36641058179558 H 0.0 **** 0.06
13793 H 91.79272457870826 103.193091236792 90.70029428709337 H 0.0 **** 0.06
13794 H 91.88859619795598 102.6213190441477 89.01682508582856 H 0.0 **** 0.06
13795 H 90.30128933570165 102.85448396508008 89.78762485497067 H 0.0 **** 0.06
13796 C 41.8384219574684 89.36364722192286 55.64038699856219 C 0.0 **** -0.24
13797 H 41.07559045571921 90.0117057443513 55.20813735276721 H 0.0 **** 0.06
13798 H 41.399160462523724 88.39427733425049 55.87762079606814 H 0.0 **** 0.06
13799 H 42.22812159332486 89.81876879738871 56.55060729137061 H 0.0 **** 0.06
13800 H 42.64933946402553 89.22936145835081 54.92357134862438 H 0.0 **** 0.06
13801 C 40.303581522753916 74.76430109609217 37.33164774209814 C 0.0 **** -0.24
13802 H 40.19262299665587 73.81309437924175 36.811175407501 H 0.0 **** 0.06
13803 H 41.23564191554635 75.23889124194716 37.025133342304 H 0.0 **** 0.06
13804 H 40.32137881034197 74.58937840451468 38.407514739023554 H 0.0 **** 0.06
13805 H 39.46479766492314 75.41499277245642 37.08224944452991 H 0.0 **** 0.06
13806 C 130.20283911587867 68.80526081453712 81.07192071083509 C 0.0 **** -0.24
13807 H 129.78633161862317 69.80191262442634 80.9249031564787 H 0.0 **** 0.06
13808 H 131.0464129022187 68.86249109717735 81.76116488726089 H 0.0 **** 0.06
13809 H 130.54075236598928 68.40905680026304 80.11534955446268 H 0.0 **** 0.06
13810 H 129.43814407965104 68.14981801447317 81.48824592507488 H 0.0 **** 0.06
13811 C 31.101287329313948 21.51403310446512 105.24147768602995 C 0.0 **** -0.24
13812 H 31.945110107075124 21.998456537452796 105.7329210027012 H 0.0 **** 0.06
13813 H 30.519564722257627 20.961737428299095 105.9789902096123 H 0.0 **** 0.06
13814 H 31.470602536243646 20.82649863965144 104.48005129426528 H 0.0 **** 0.06
13815 H 30.471199641333854 22.270304289660736 104.77324817526326 H 0.0 **** 0.06
13816 C 130.07983317022578 13.636154629350571 25.149238066928746 C 0.0 **** -0.24
13817 H 131.14116389656286 13.382237346866901 25.15529868009631 H 0.0 **** 0.06
13818 H 129.5030811222493 12.789420356882488 25.52116629538486 H 0.0 **** 0.06
13819 H 129.7692536682462 13.869655100275935 24.13024373846551 H 0.0 **** 0.06
13820 H 129.91067264592377 14.501193443276577 25.789181770548964 H 0.0 **** 0.06
13821 C 76.94491442684274 13.926487349771492 80.1606486295693 C 0.0 **** -0.24
13822 H 77.56615863607834 13.594782973873123 79.32835760985895 H 0.0 **** 0.06
13823 H 76.64972158507216 14.963563437109826 80.00260490394831 H 0.0 **** 0.06
13824 H 77.50938132116153 13.845292685851462 81.08943978388098 H 0.0 **** 0.06
13825 H 76.05447382325109 13.29972847040159 80.22036775546269 H 0.0 **** 0.06
13826 C 13.518704702867538 37.05070020628199 125.16039523477619 C 0.0 **** -0.24
13827 H 12.892929977652642 37.70044755981456 124.54910168601972 H 0.0 **** 0.06
13828 H 13.022164966860117 36.08806229882816 125.29208106201537 H 0.0 **** 0.06
13829 H 13.680926743659342 37.51257176661926 126.13458934996115 H 0.0 **** 0.06
13830 H 14.478116956038065 36.89961584219208 124.66547188600754 H 0.0 **** 0.06
13831 C 97.57885720581783 74.74186341802249 37.391212056692424 C 0.0 **** -0.24
13832 H 96.94106329653223 74.10847725505334 38.00710435377883 H 0.0 **** 0.06
13833 H 97.98120090663568 74.15734026921561 36.56342661209813 H 0.0 **** 0.06
13834 H 98.3998673625382 75.12704613966014 37.99595833848925 H 0.0 **** 0.06
13835 H 96.99486949129002 75.57398324723691 36.9987590350663 H 0.0 **** 0.06
13836 C 118.73269533996529 92.15768431631872 81.86513405548008 C 0.0 **** -0.24
13837 H 119.30839687043385 93.08298606894814 81.85843634553406 H 0.0 **** 0.06
13838 H 117.9665969934826 92.20055812655119 81.0900013494376 H 0.0 **** 0.06
13839 H 118.25910654484187 92.03133450597679 82.83884954951168 H 0.0 **** 0.06
13840 H 119.39785254452067 91.31517322387288 81.67285174960845 H 0.0 **** 0.06
13841 C 26.80688639024885 60.141536587487465 27.234933038691622 C 0.0 **** -0.24
13842 H 27.248261961382696 59.14575441116128 27.26812789165473 H 0.0 **** 0.06
13843 H 27.297841105672262 60.73114904080241 26.46005359726928 H 0.0 **** 0.06
13844 H 26.93785731201291 60.62963765101854 28.200890314980995 H 0.0 **** 0.06
13845 H 25.743479388271396 60.06059774959688 27.010598689023197 H 0.0 **** 0.06
13846 C 107.23425263209381 110.67915117627552 71.7486592305201 C 0.0 **** -0.24
13847 H 107.25747683901764 111.75696845841229 71.58921335564804 H 0.0 **** 0.06
13848 H 108.05621166505907 110.21422947406015 71.20452357225167 H 0.0 **** 0.06
13849 H 106.28659419786058 110.27947326261068 71.38663496418536 H 0.0 **** 0.06
13850 H 107.33599928929513 110.46766183307778 72.81268944479251 H 0.0 **** 0.06
13851 C 106.72422586004885 78.83632097679083 39.41297046522345 C 0.0 **** -0.24
13852 H 106.08789066752203 79.52587418245628 39.96811134472591 H 0.0 **** 0.06
13853 H 107.17231599835682 79.3574048998961 38.56740190043635 H 0.0 **** 0.06
13854 H 106.12552528308095 78.00143195319072 39.050460686692375 H 0.0 **** 0.06
13855 H 107.51176113287545 78.4621570729347 40.06838646337924 H 0.0 **** 0.06
13856 C 43.73382569659955 0.2690730042088205 108.332672044468 C 0.0 **** -0.24
13857 H 43.06175240058471 1.0070135452015734 107.89585096714791 H 0.0 **** 0.06
13858 H 44.29953382905299 0.7279899217795105 109.14345070423883 H 0.0 **** 0.06
13859 H 44.421684326948736 -0.09274902367454274 107.56808338011122 H 0.0 **** 0.06
13860 H 43.151573895211925 -0.5667077148123383 108.72237061051814 H 0.0 **** 0.06
13861 C 5.141911337311683 124.74775266347056 120.25787596891581 C 0.0 **** -0.24
13862 H 5.220732009773542 124.66718013210601 121.34225683628313 H 0.0 **** 0.06
13863 H 6.10159859034917 124.4961901290115 119.80429329224586 H 0.0 **** 0.06
13864 H 4.869167461191751 125.76838151299017 119.98846173355753 H 0.0 **** 0.06
13865 H 4.376944193342354 124.06033779918234 119.89694032884194 H 0.0 **** 0.06
13866 C 97.54582840485423 106.25151647872325 126.02413026172965 C 0.0 **** -0.24
13867 H 96.75256225908419 106.34413150865174 125.2820953783781 H 0.0 **** 0.06
13868 H 98.45307512810126 105.88739409577859 125.5427928520842 H 0.0 **** 0.06
13869 H 97.23805182991629 105.54960568409373 126.79978439770574 H 0.0 **** 0.06
13870 H 97.73819995094007 107.22658709048049 126.47233890869447 H 0.0 **** 0.06
13871 C 14.061706199193758 100.19875713697697 69.36217830880858 C 0.0 **** -0.24
13872 H 14.881673074742228 100.91533856006197 69.31625611539462 H 0.0 **** 0.06
13873 H 14.146716564039021 99.49733559894545 68.53160225091622 H 0.0 **** 0.06
13874 H 13.11155858691971 100.72920838857873 69.29458770899339 H 0.0 **** 0.06
13875 H 14.108472532903082 99.65381649685422 70.30485166708772 H 0.0 **** 0.06
13876 C 98.77951279202512 34.959971407316175 105.19036838418883 C 0.0 **** -0.24
13877 H 98.23433230521621 35.840496635191926 105.53041254847892 H 0.0 **** 0.06
13878 H 99.36895437150605 34.55665546821322 106.0145282089703 H 0.0 **** 0.06
13879 H 99.44300001813863 35.23901616907156 104.37108439265108 H 0.0 **** 0.06
13880 H 98.07286870930795 34.20553693955648 104.84476277670765 H 0.0 **** 0.06
13881 C 52.86395602160718 130.65036504805084 59.757957844395946 C 0.0 **** -0.24
13882 H 53.164385599220765 131.28110409572423 60.59406473935951 H 0.0 **** 0.06
13883 H 51.787479277811514 130.73689078512245 59.606882886011135 H 0.0 **** 0.06
13884 H 53.1181416939545 129.61299598982873 59.9762937511548 H 0.0 **** 0.06
13885 H 53.38522999689721 130.970749643727 58.85584553015906 H 0.0 **** 0.06
13886 C 114.80093284091926 17.446644679144498 21.99027449455909 C 0.0 **** -0.24
13887 H 115.70910776665099 17.342510439701933 21.396605536134985 H 0.0 **** 0.06
13888 H 114.88604064704849 16.84311684466155 22.894234291034564 H 0.0 **** 0.06
13889 H 113.94459725941631 17.108119688077437 21.406750125609477 H 0.0 **** 0.06
13890 H 114.66334984876254 18.492878982956476 22.262737616702054 H 0.0 **** 0.06
13891 C 54.76689678681612 116.21337714117166 68.66173611634736 C 0.0 **** -0.24
13892 H 53.73853843390937 116.30100917469491 68.31128613490796 H 0.0 **** 0.06
13893 H 54.835096376100154 116.58232175800862 69.68435826908001 H 0.0 **** 0.06
13894 H 55.420790201849954 116.80129266904945 68.0178827286731 H 0.0 **** 0.06
13895 H 55.07277687630268 115.16700089975507 68.63111464193179 H 0.0 **** 0.06
13896 C 103.50319010524424 91.55469015081839 124.07735525219971 C 0.0 **** -0.24
13897 H 103.97146944068557 90.58151251313136 123.93018115608533 H 0.0 **** 0.06
13898 H 104.10889767309345 92.14887020679619 124.76096539367948 H 0.0 **** 0.06
13899 H 102.50641018963296 91.4172469432745 124.49931350707143 H 0.0 **** 0.06
13900 H 103.42394326946956 92.06837385324657 123.11944897181714 H 0.0 **** 0.06
13901 C 0.835567514449366 2.335166013722386 99.46252343963609 C 0.0 **** -0.24
13902 H 0.7658355963097279 2.9308820054655484 98.55259576977382 H 0.0 **** 0.06
13903 H 1.8198624093074613 1.869984504897701 99.51701379549682 H 0.0 **** 0.06
13904 H 0.06797184900264597 1.5611498513730737 99.44858189681317 H 0.0 **** 0.06
13905 H 0.6878230646814814 2.9781998947900092 100.3301146286556 H 0.0 **** 0.06
13906 C 69.31371825133117 27.224754046507826 96.74249000630333 C 0.0 **** -0.24
13907 H 68.98560698452259 26.32520480426504 96.22068287294115 H 0.0 **** 0.06
13908 H 69.53526167438658 28.005947814576444 96.01571958406623 H 0.0 **** 0.06
13909 H 70.21074326977049 27.000905000190215 97.32131751565004 H 0.0 **** 0.06
13910 H 68.52414949243857 27.56375400874296 97.41395536799192 H 0.0 **** 0.06
13911 C 10.606093854370442 21.881705004770424 104.98680738713509 C 0.0 **** -0.24
13912 H 9.968962275741944 21.588802138710832 105.821571879579 H 0.0 **** 0.06
13913 H 10.605665621324192 21.093664381024496 104.23462709771141 H 0.0 **** 0.06
13914 H 11.623287976180052 22.041952065227008 105.34592928368933 H 0.0 **** 0.06
13915 H 10.227199513915195 22.804269556527686 104.54732908178003 H 0.0 **** 0.06
13916 C 24.005946946947603 86.3631975833153 57.29964350469997 C 0.0 **** -0.24
13917 H 24.00690086077242 86.52865574231686 56.222823143111555 H 0.0 **** 0.06
13918 H 23.019815991233003 86.59688335661684 57.70254329287005 H 0.0 **** 0.06
13919 H 24.751191342595206 87.00584125139574 57.76715854384754 H 0.0 **** 0.06
13920 H 24.244608604320405 85.31999725332275 57.5072276237549 H 0.0 **** 0.06
13921 C 60.119477872190714 122.18538935013322 82.63725749292229 C 0.0 **** -0.24
13922 H 60.417417552358415 121.19891858392782 82.99292989900373 H 0.0 **** 0.06
13923 H 60.95143472969119 122.88051724332678 82.75657870804297 H 0.0 **** 0.06
13924 H 59.265382536372385 122.5375487496243 83.21540657810394 H 0.0 **** 0.06
13925 H 59.84519560605679 122.12293832368823 81.58426149679316 H 0.0 **** 0.06
13926 C 88.69943690415599 62.65359530022049 117.16666646423967 C 0.0 **** -0.24
13927 H 88.01512675126781 62.130366357270574 116.49823277304392 H 0.0 **** 0.06
13928 H 88.12671312303016 63.21151867738163 117.90789954486188 H 0.0 **** 0.06
13929 H 89.31544030124218 63.341676432652946 116.58902768907315 H 0.0 **** 0.06
13930 H 89.33858399304299 61.92848578307455 117.6715820213226 H 0.0 **** 0.06
13931 C 123.33564023131113 54.27630947519674 83.55963804180708 C 0.0 **** -0.24
13932 H 123.52966942402013 55.007520307549754 82.77471455602978 H 0.0 **** 0.06
13933 H 122.65829150532954 53.5093662233285 83.18314599982664 H 0.0 **** 0.06
13934 H 122.88146417207061 54.77457850641346 84.41597940849532 H 0.0 **** 0.06
13935 H 124.27405497102355 53.81360818272671 83.86507011993329 H 0.0 **** 0.06
13936 C 68.72049158826762 90.45533210662374 42.809332435021474 C 0.0 **** -0.24
13937 H 67.8148798483754 90.80418983071495 42.31276305208061 H 0.0 **** 0.06
13938 H 68.8754704934191 91.02641018326321 43.72428696589182 H 0.0 **** 0.06
13939 H 69.57369389851601 90.59236090952294 42.1451062801445 H 0.0 **** 0.06
13940 H 68.61608707257598 89.39883460749374 43.05307227836235 H 0.0 **** 0.06
13941 C 64.64346778200903 83.9329093577675 25.389786676194944 C 0.0 **** -0.24
13942 H 63.97258740789118 84.41916622051727 24.681513945643303 H 0.0 **** 0.06
13943 H 64.60174891271296 82.8521300654129 25.246049902599452 H 0.0 **** 0.06
13944 H 64.33633739727466 84.17638505403394 26.40615024202134 H 0.0 **** 0.06
13945 H 65.66193892488141 84.28256634902417 25.223856173127274 H 0.0 **** 0.06
13946 C 74.0235974549417 8.510067250513089 39.77568986219771 C 0.0 **** -0.24
13947 H 73.65454840164436 8.60673805520156 40.79617158941258 H 0.0 **** 0.06
13948 H 75.10358514527776 8.365834233075788 39.79226872316289 H 0.0 **** 0.06
13949 H 73.78540163940211 9.415115369130916 39.216734465001025 H 0.0 **** 0.06
13950 H 73.54987285343066 7.652681396590879 39.29774639185467 H 0.0 **** 0.06
13951 C 22.97592434286628 30.45789810947379 106.1010659729637 C 0.0 **** -0.24
13952 H 23.86612934760899 29.880093965971113 106.35102983076952 H 0.0 **** 0.06
13953 H 23.26955898198736 31.37564791501056 105.58973773617012 H 0.0 **** 0.06
13954 H 22.43636079126054 30.706474402609786 107.01449983697877 H 0.0 **** 0.06
13955 H 22.331967022050492 29.86823908864711 105.4477293516735 H 0.0 **** 0.06
13956 C 129.35240331364045 69.55434278010821 63.46408271764858 C 0.0 **** -0.24
13957 H 130.03375663600573 68.83336663339 63.915558634103604 H 0.0 **** 0.06
13958 H 129.9071236645642 70.20473430576507 62.78807336604514 H 0.0 **** 0.06
13959 H 128.88800695252803 70.1537380832375 64.24712917853773 H 0.0 **** 0.06
13960 H 128.58045311476147 69.02324363959431 62.907490367395894 H 0.0 **** 0.06
13961 C 12.988971890086496 83.21245609877101 38.82641620977461 C 0.0 **** -0.24
13962 H 13.04847884836192 82.20447989434655 38.416530454075826 H 0.0 **** 0.06
13963 H 12.949555954616905 83.9336296649578 38.0096319181132 H 0.0 **** 0.06
13964 H 13.86755144088795 83.40757932665937 39.441224603326475 H 0.0 **** 0.06
13965 H 12.089853663694132 83.30347200152775 39.43596276091728 H 0.0 **** 0.06
13966 C 100.29738577126074 3.430096240344369 126.95334327155192 C 0.0 **** -0.24
13967 H 100.49613481025483 2.9882095265808317 125.97700807533951 H 0.0 **** 0.06
13968 H 100.0371301753801 2.6439341018246125 127.6616289131226 H 0.0 **** 0.06
13969 H 99.47039498495718 4.134538747540688 126.87106692589109 H 0.0 **** 0.06
13970 H 101.18785600632772 3.953671422508137 127.30221759953102 H 0.0 **** 0.06
13971 C 18.68458678063317 81.89949976915365 113.59944606810221 C 0.0 **** -0.24
13972 H 18.31124372061018 81.173749165109 112.8773591919723 H 0.0 **** 0.06
13973 H 18.00424496707805 82.75022307490445 113.64506816304647 H 0.0 **** 0.06
13974 H 19.67437617680318 82.2396888004559 113.29474974026279 H 0.0 **** 0.06
13975 H 18.74840061348587 81.43255526871816 114.58301872808245 H 0.0 **** 0.06
13976 C 49.79432470413016 123.45639747109834 30.258976478000193 C 0.0 **** -0.24
13977 H 48.70711167992718 123.5025721652182 30.322813888208145 H 0.0 **** 0.06
13978 H 50.23107539263184 123.97493808799956 31.112479222206616 H 0.0 **** 0.06
13979 H 50.124428313984126 123.9325590974139 29.335649239555323 H 0.0 **** 0.06
13980 H 50.11404437912536 122.41366585932823 30.265353460159417 H 0.0 **** 0.06
13981 C 27.553837800079833 108.55149035448238 51.53134394015598 C 0.0 **** -0.24
13982 H 28.393261978010145 108.02869708706959 51.07088566511976 H 0.0 **** 0.06
13983 H 27.020170428632753 107.86878657816408 52.19191574690808 H 0.0 **** 0.06
13984 H 26.878698980410462 108.90856800997562 50.75403025833998 H 0.0 **** 0.06
13985 H 27.926175024184403 109.39863816218661 52.106633437315395 H 0.0 **** 0.06
13986 C 125.66891073550862 89.18634518265117 130.71844433766483 C 0.0 **** -0.24
13987 H 126.70502980550367 89.23271262121477 130.38371641449245 H 0.0 **** 0.06
13988 H 125.27431340626566 90.1977576489324 130.8201954631511 H 0.0 **** 0.06
13989 H 125.620715273468 88.67900202912102 131.68195437389747 H 0.0 **** 0.06
13990 H 125.07486019673736 88.63712309677862 129.9878989694778 H 0.0 **** 0.06
13991 C 77.4691319344025 0.1402252258172112 19.880177285200716 C 0.0 **** -0.24
13992 H 77.93237530333604 -0.8444922881986017 19.81446202685072 H 0.0 **** 0.06
13993 H 76.80120457006012 0.283605334626456 19.030013344446843 H 0.0 **** 0.06
13994 H 78.2426157918712 0.9076838659666038 19.86880239119202 H 0.0 **** 0.06
13995 H 76.89888221881435 0.21204096202290224 20.806149861907244 H 0.0 **** 0.06
13996 C 124.31317084366424 80.06616776134791 102.22572142977674 C 0.0 **** -0.24
13997 H 124.78324776335253 80.37991766278611 103.15779447543076 H 0.0 **** 0.06
13998 H 124.2536321380845 78.97756049509195 102.19793827556202 H 0.0 **** 0.06
13999 H 124.90660212215519 80.41978277974397 101.38327550276671 H 0.0 **** 0.06
14000 H 123.30976094832172 80.48699179943179 102.16546240600633 H 0.0 **** 0.06
14001 C 96.85787595939959 107.79002185590879 6.317609147351391 C 0.0 **** -0.24
14002 H 97.35707772791854 107.85591392498952 7.284817683007901 H 0.0 **** 0.06
14003 H 97.3043562243765 108.50870526755088 5.628971284111827 H 0.0 **** 0.06
14004 H 95.79848709657118 108.01396690371519 6.440378404145832 H 0.0 **** 0.06
14005 H 96.97273269768796 106.78332488748173 5.917432263127154 H 0.0 **** 0.06
14006 C 28.33207352858932 13.202869995811795 85.26795833690917 C 0.0 **** -0.24
14007 H 29.154097672347604 12.848684950723765 85.89133127789441 H 0.0 **** 0.06
14008 H 27.579661105991676 12.41888637445362 85.1799031262232 H 0.0 **** 0.06
14009 H 28.71074806079261 13.456855310185318 84.27831169103493 H 0.0 **** 0.06
14010 H 27.8851116544665 14.08574273820932 85.72387742782058 H 0.0 **** 0.06
14011 C 117.63312187809692 27.690008663371223 93.78817798734262 C 0.0 **** -0.24
14012 H 117.44309946300376 28.46789238170477 93.04854843062381 H 0.0 **** 0.06
14013 H 118.6403675813479 27.29682593465978 93.6499755551159 H 0.0 **** 0.06
14014 H 116.90861107754057 26.886095749126483 93.66275657841106 H 0.0 **** 0.06
14015 H 117.54062138168396 28.1109174319013 94.78877124612912 H 0.0 **** 0.06
14016 C 80.51839866721957 89.42596429146374 109.44197320687721 C 0.0 **** -0.24
14017 H 81.20041858797809 88.59047817041102 109.59701897403295 H 0.0 **** 0.06
14018 H 80.03591434961118 89.68157975008245 110.38573913687475 H 0.0 **** 0.06
14019 H 79.76081918830117 89.14574760240345 108.7099763358612 H 0.0 **** 0.06
14020 H 81.07712930796633 90.28728353705196 109.07505396472664 H 0.0 **** 0.06
14021 C 128.47362776143794 7.003715930604045 55.282825004577774 C 0.0 **** -0.24
14022 H 129.1306945540477 6.135766439830036 55.21833124993299 H 0.0 **** 0.06
14023 H 128.16602366640902 7.300481464836082 54.28014140246876 H 0.0 **** 0.06
14024 H 129.00588466665369 7.8268581307329725 55.75970233092016 H 0.0 **** 0.06
14025 H 127.5938399382124 6.749893221376709 55.87401522775383 H 0.0 **** 0.06
14026 C 2.878987024812659 64.35518632353609 105.84917919903629 C 0.0 **** -0.24
14027 H 2.259748853201245 64.073893101701 106.70081918573882 H 0.0 **** 0.06
14028 H 3.9259312287104535 64.37476761692085 106.15310668743834 H 0.0 **** 0.06
14029 H 2.58435925834209 65.34387480716703 105.49715073627348 H 0.0 **** 0.06
14030 H 2.746607481922922 63.62895625262712 105.04703829804657 H 0.0 **** 0.06
14031 C 112.4743155383733 37.773288205089706 102.01365341709717 C 0.0 **** -0.24
14032 H 113.37140940614015 37.978694689039436 102.59925510673139 H 0.0 **** 0.06
14033 H 111.62229642669763 37.66275667647112 102.68407317887372 H 0.0 **** 0.06
14034 H 112.61430335984463 36.85354561797181 101.44630659729839 H 0.0 **** 0.06
14035 H 112.29233089280189 38.59972478599421 101.3269951258612 H 0.0 **** 0.06
14036 C 41.787240752373805 108.37292654643659 88.83354408191785 C 0.0 **** -0.24
14037 H 41.82475999584386 108.33837698704468 87.74537680340399 H 0.0 **** 0.06
14038 H 42.80012141757761 108.31115840508255 89.23443441114608 H 0.0 **** 0.06
14039 H 41.19745523111212 107.53464688482683 89.2041121661763 H 0.0 **** 0.06
14040 H 41.32732902616934 109.30967676067695 89.15118666622035 H 0.0 **** 0.06
14041 C 58.355853266198835 85.84453023835397 52.84548016542857 C 0.0 **** -0.24
14042 H 58.435279420501786 85.13850741987966 52.01921828143736 H 0.0 **** 0.06
14043 H 59.17611307984754 85.67984741217936 53.545063573664436 H 0.0 **** 0.06
14044 H 57.405417320990296 85.69803167578931 53.3583974512714 H 0.0 **** 0.06
14045 H 58.406770092998784 86.86307339795212 52.458817704966236 H 0.0 **** 0.06
14046 C 73.70645315105463 102.62985744479892 98.20116216886746 C 0.0 **** -0.24
14047 H 73.71759959662167 102.38557666931638 97.13910609219478 H 0.0 **** 0.06
14048 H 73.85827270166477 101.72176315721532 98.78447259155692 H 0.0 **** 0.06
14049 H 72.74494700791595 103.07334054962013 98.46150845671598 H 0.0 **** 0.06
14050 H 74.50515382208627 103.33960356349883 98.41844584963492 H 0.0 **** 0.06
14051 C 16.935212825988657 129.0733579578001 105.87752731738263 C 0.0 **** -0.24
14052 H 17.91189822563399 128.75196598623484 106.23984392138149 H 0.0 **** 0.06
14053 H 17.06198503123312 129.6721235974746 104.97536546498885 H 0.0 **** 0.06
14054 H 16.44128239054774 129.6698793604967 106.64442196543409 H 0.0 **** 0.06
14055 H 16.326507075604496 128.1973750642212 105.64949475828645 H 0.0 **** 0.06
14056 C 4.810558762627565 20.27952819909028 54.05465981076384 C 0.0 **** -0.24
14057 H 5.423454864846619 21.148502700651193 53.817634309806124 H 0.0 **** 0.06
14058 H 5.185136123201616 19.807539572259373 54.96266365214734 H 0.0 **** 0.06
14059 H 4.85522855587196 19.567842928514878 53.23002584480798 H 0.0 **** 0.06
14060 H 3.778096261723391 20.594558040483143 54.207427210869696 H 0.0 **** 0.06
14061 C 70.35619592288634 92.00859069555692 38.342817696423396 C 0.0 **** -0.24
14062 H 71.42483031982255 91.79396317084968 38.35100436100463 H 0.0 **** 0.06
14063 H 70.08460716251571 92.5321095222011 39.25949596859025 H 0.0 **** 0.06
14064 H 69.7979413245913 91.07406005657182 38.279407846487096 H 0.0 **** 0.06
14065 H 70.1178404314171 92.63337703103728 37.482403185993896 H 0.0 **** 0.06
14066 C 46.24721883901046 70.3981424953181 99.33822729181901 C 0.0 **** -0.24
14067 H 46.637357606826185 69.90295354942626 98.44783904090701 H 0.0 **** 0.06
14068 H 45.163236345826675 70.29202633997674 99.36629377957081 H 0.0 **** 0.06
14069 H 46.5098888351456 71.4553880060558 99.30987516890056 H 0.0 **** 0.06
14070 H 46.68135243153506 69.94012892857904 100.22691568563812 H 0.0 **** 0.06
14071 C 0.300257700045762 72.45932998038401 38.818758808996904 C 0.0 **** -0.24
14072 H -0.5727694489056034 72.6434658609341 39.44517246247466 H 0.0 **** 0.06
14073 H 0.9539373561366915 73.33216289032299 38.840717244682395 H 0.0 **** 0.06
14074 H -0.020454957381105032 72.26979169458943 37.79452149043061 H 0.0 **** 0.06
14075 H 0.8404919227707808 71.59070831781418 39.19675738726903 H 0.0 **** 0.06
14076 C 68.32035856118524 69.36052542856187 96.36613918756547 C 0.0 **** -0.24
14077 H 67.81490045848679 68.88532333061033 97.20646383060006 H 0.0 **** 0.06
14078 H 68.55657235216552 70.39393012886605 96.62251647881124 H 0.0 **** 0.06
14079 H 67.66897867180242 69.34346860152638 95.49258051694557 H 0.0 **** 0.06
14080 H 69.24127152956345 68.82137889099587 96.14395505977603 H 0.0 **** 0.06
14081 C 102.83571954400333 105.31207544308428 56.51421415153371 C 0.0 **** -0.24
14082 H 103.05264930802838 104.62479050455333 55.69719928328554 H 0.0 **** 0.06
14083 H 101.89231443820094 105.82286120581217 56.31750303094657 H 0.0 **** 0.06
14084 H 103.63608720058971 106.04678420568108 56.59454501350305 H 0.0 **** 0.06
14085 H 102.75939410967754 104.75398810336486 57.44735369912445 H 0.0 **** 0.06
14086 C 10.337009514734461 95.96276380051671 57.28008693112872 C 0.0 **** -0.24
14087 H 11.073253275431995 96.2882086373138 58.015844581555314 H 0.0 **** 0.06
14088 H 9.444118517712042 95.60531742943567 57.79383811312658 H 0.0 **** 0.06
14089 H 10.757948900829376 95.15820932970342 56.6781645657187 H 0.0 **** 0.06
14090 H 10.074569834043075 96.80102852698883 56.63507909881383 H 0.0 **** 0.06
14091 C 91.9722492282459 27.902522042107307 56.36786536197732 C 0.0 **** -0.24
14092 H 92.1151247399181 27.31831340086046 55.4591941993406 H 0.0 **** 0.06
14093 H 91.68826478397655 27.23960623692693 57.18439268462808 H 0.0 **** 0.06
14094 H 91.18432100300052 28.638766874481178 56.20581541047514 H 0.0 **** 0.06
14095 H 92.90127712616301 28.4142253781327 56.620909584736154 H 0.0 **** 0.06
14096 C 117.97972920505299 34.97243143561445 67.17378035054965 C 0.0 **** -0.24
14097 H 117.76612851863777 35.95959922976008 67.58446149300973 H 0.0 **** 0.06
14098 H 117.04349120390117 34.456903603078665 66.96110008006116 H 0.0 **** 0.06
14099 H 118.55640623774559 34.39569057693333 67.89757666549907 H 0.0 **** 0.06
14100 H 118.55428396698946 35.079592245532865 66.25366141132142 H 0.0 **** 0.06
14101 C 5.366873383241 67.60005952492071 56.09722874087319 C 0.0 **** -0.24
14102 H 6.317546205035171 67.35128368260916 55.62562802594056 H 0.0 **** 0.06
14103 H 5.092950037434889 66.81369457603705 56.80102393312259 H 0.0 **** 0.06
14104 H 4.595212756900594 67.69051119342879 55.33273489360437 H 0.0 **** 0.06
14105 H 5.463194254964833 68.5467470063 56.62966805326519 H 0.0 **** 0.06
14106 C 81.09244356551797 9.49054145115139 63.16149811404813 C 0.0 **** -0.24
14107 H 81.39207897233058 8.45437987510373 63.316321370293906 H 0.0 **** 0.06
14108 H 80.02208717639427 9.590768411153853 63.347076509390604 H 0.0 **** 0.06
14109 H 81.31193638114006 9.783095698118345 62.134452636350915 H 0.0 **** 0.06
14110 H 81.64226630151015 10.134869302584804 63.8477852756229 H 0.0 **** 0.06
14111 C 40.06629623209486 36.35706054053361 45.4564200215859 C 0.0 **** -0.24
14112 H 40.588285232238775 35.59262588357717 46.03266619538971 H 0.0 **** 0.06
14113 H 38.994668562700554 36.15993853753221 45.4805345030926 H 0.0 **** 0.06
14114 H 40.41666769343078 36.33580310378909 44.424520595297 H 0.0 **** 0.06
14115 H 40.266128915394575 37.33679066518923 45.88754658691653 H 0.0 **** 0.06
14116 C 70.36856624216608 106.89983534439283 76.41497086203807 C 0.0 **** -0.24
14117 H 70.97649492689752 106.36213222253205 75.68787974304004 H 0.0 **** 0.06
14118 H 70.98750259364263 107.18329280084606 77.26647667803269 H 0.0 **** 0.06
14119 H 69.55548516204391 106.25836197613737 76.75340030792376 H 0.0 **** 0.06
14120 H 69.95575618967592 107.79615913742914 75.95129853452343 H 0.0 **** 0.06
14121 C 81.71096489070976 111.1675826015948 117.20182139665701 C 0.0 **** -0.24
14122 H 80.99983896539362 110.34450376417693 117.13471259863695 H 0.0 **** 0.06
14123 H 81.58941266206631 111.67571885353932 118.15947383110841 H 0.0 **** 0.06
14124 H 81.5280959407254 111.87310341806096 116.39110454444688 H 0.0 **** 0.06
14125 H 82.72558581324677 110.77864701707897 117.1231963529649 H 0.0 **** 0.06
14126 C 95.61537815592555 127.15200248341836 11.641405095849617 C 0.0 **** -0.24
14127 H 95.53561119739146 126.49327616023697 10.77626963308504 H 0.0 **** 0.06
14128 H 95.5475203488653 126.5600995815264 12.555061942286851 H 0.0 **** 0.06
14129 H 94.8048380801668 127.88025718309183 11.618992319635744 H 0.0 **** 0.06
14130 H 96.57189074995642 127.67195912307889 11.614645020141623 H 0.0 **** 0.06
14131 C 14.618871353055866 105.0313977718071 130.77111082231158 C 0.0 **** -0.24
14132 H 14.93939772741598 104.0142629517409 130.9957439713907 H 0.0 **** 0.06
14133 H 14.160862709867331 105.47083528979542 131.65730223862894 H 0.0 **** 0.06
14134 H 13.893243453173383 105.01137179966102 129.95883839027354 H 0.0 **** 0.06
14135 H 15.48150641061477 105.62642563915111 130.47414286401886 H 0.0 **** 0.06
14136 C 53.30196728901052 17.16040241243242 126.36471154603157 C 0.0 **** -0.24
14137 H 53.31003861179971 17.98811818043154 125.65533650631417 H 0.0 **** 0.06
14138 H 54.326546774647625 16.845497272533493 126.56738420462827 H 0.0 **** 0.06
14139 H 52.74106566746326 16.326093097402406 125.9435633483277 H 0.0 **** 0.06
14140 H 52.83052020323686 17.48262511395589 127.29373883624336 H 0.0 **** 0.06
14141 C 5.350868368758881 52.612571422818704 11.504804186571022 C 0.0 **** -0.24
14142 H 4.476846191372147 52.44134638708894 12.133300565198397 H 0.0 **** 0.06
14143 H 5.082625373877363 52.457222249644985 10.45961098772915 H 0.0 **** 0.06
14144 H 6.140602767358359 51.915489287950294 11.784583624962096 H 0.0 **** 0.06
14145 H 5.702861432441097 53.63481809848746 11.642572374869047 H 0.0 **** 0.06
14146 C 46.06494215198032 16.13069202145686 36.90871702481304 C 0.0 **** -0.24
14147 H 45.33113582880932 16.52515298170721 37.61100489635737 H 0.0 **** 0.06
14148 H 46.53735686987466 16.95534405111566 36.3749625541477 H 0.0 **** 0.06
14149 H 45.56800174410341 15.472348446830452 36.19537944642093 H 0.0 **** 0.06
14150 H 46.82335375441224 15.568058394000658 37.454241342808785 H 0.0 **** 0.06
14151 C 81.74774379932484 81.49264611981566 123.50410339929115 C 0.0 **** -0.24
14152 H 81.97185232587111 80.47965920419672 123.16743971447215 H 0.0 **** 0.06
14153 H 80.72784660864423 81.75189120189566 123.21790548712337 H 0.0 **** 0.06
14154 H 82.44435448332084 82.19132002210523 123.04179641364792 H 0.0 **** 0.06
14155 H 81.84552990244507 81.54445809440597 124.588592164343 H 0.0 **** 0.06
14156 C 124.05637666802464 30.37008600303568 129.27290104440246 C 0.0 **** -0.24
14157 H 124.46307882622784 30.14840479578453 128.28658505778972 H 0.0 **** 0.06
14158 H 123.90607838716772 29.43934385757325 129.8210981140264 H 0.0 **** 0.06
14159 H 123.10212229251202 30.886907486315806 129.1651853150029 H 0.0 **** 0.06
14160 H 124.7542271661912 31.005687872469196 129.81873569079104 H 0.0 **** 0.06
14161 C 7.8277078234795 7.363977472440354 4.80755962016238 C 0.0 **** -0.24
14162 H 8.554691677251242 6.844630008806149 5.432074764958259 H 0.0 **** 0.06
14163 H 7.973450827367628 8.439799978349612 4.900000577872362 H 0.0 **** 0.06
14164 H 6.819916602803858 7.103265999166808 5.130571762935631 H 0.0 **** 0.06
14165 H 7.965046200377458 7.066414682024401 3.7683608985734054 H 0.0 **** 0.06
14166 C 128.04830526277036 82.58679765252845 103.15266525416627 C 0.0 **** -0.24
14167 H 127.06834729385335 82.53414912334426 102.67768208127853 H 0.0 **** 0.06
14168 H 128.74263041172284 81.93490211207349 102.62243580676807 H 0.0 **** 0.06
14169 H 127.96720343058843 82.26424080344364 104.19045088451178 H 0.0 **** 0.06
14170 H 128.41346091728565 83.61311498874873 103.11871636450162 H 0.0 **** 0.06
14171 C 27.944494665768218 79.25761357024457 18.119418414212447 C 0.0 **** -0.24
14172 H 27.912748183979147 78.24616579177902 18.525886231155653 H 0.0 **** 0.06
14173 H 28.608557175676594 79.87204186731164 18.72752969631898 H 0.0 **** 0.06
14174 H 26.941913685275182 79.68419166031082 18.129364862180168 H 0.0 **** 0.06
14175 H 28.315908827662128 79.22548425958237 17.09515980600065 H 0.0 **** 0.06
14176 C 74.4715008245505 70.91594894674705 53.566729687595796 C 0.0 **** -0.24
14177 H 74.46013585915978 70.97575685610057 52.478139150889575 H 0.0 **** 0.06
14178 H 75.38587918198004 70.4203348094561 53.894206960315955 H 0.0 **** 0.06
14179 H 73.60693668953377 70.34535996179635 53.907872780949134 H 0.0 **** 0.06
14180 H 74.43201411516941 71.92115302792743 53.985473024232334 H 0.0 **** 0.06
14181 C 65.26361443278137 118.1707011310969 10.722678438824957 C 0.0 **** -0.24
14182 H 64.82504744549371 119.13376075732157 10.985613167600178 H 0.0 **** 0.06
14183 H 66.02281058838477 118.31593517169335 9.95347313531893 H 0.0 **** 0.06
14184 H 64.48477100205955 117.50964215525806 10.344360671316451 H 0.0 **** 0.06
14185 H 65.72016573890977 117.72626389191578 11.606626894136085 H 0.0 **** 0.06
14186 C 33.16652821665595 95.02354473294227 18.615207919521197 C 0.0 **** -0.24
14187 H 33.57684076809728 94.61696703653826 19.539228277244064 H 0.0 **** 0.06
14188 H 32.30255648470047 95.64761978210935 18.84558955688408 H 0.0 **** 0.06
14189 H 32.86123430291363 94.2055110001891 17.96233431970785 H 0.0 **** 0.06
14190 H 33.925481310912325 95.62408111293267 18.11367952424858 H 0.0 **** 0.06
14191 C 127.62465373601847 94.54984471879547 86.69138063820157 C 0.0 **** -0.24
14192 H 128.37467410746078 95.08211194911986 86.10597775827992 H 0.0 **** 0.06
14193 H 126.67483685178112 94.5576373256598 86.156483784654 H 0.0 **** 0.06
14194 H 127.50241876751599 95.04028246094339 87.65688044580023 H 0.0 **** 0.06
14195 H 127.94720559028731 93.52045623116416 86.84459963037457 H 0.0 **** 0.06
14196 C 30.55798731486425 82.91451608229562 63.70517288774576 C 0.0 **** -0.24
14197 H 30.17714566373121 81.9672323663189 64.08600307245928 H 0.0 **** 0.06
14198 H 29.720312850331595 83.56348816730933 63.446299765620026 H 0.0 **** 0.06
14199 H 31.16483705138387 82.73261169687589 62.81805413890895 H 0.0 **** 0.06
14200 H 31.167569713856267 83.39548837676465 64.47004242690808 H 0.0 **** 0.06
14201 C 3.9039448362165103 115.37543911278676 27.451674185742263 C 0.0 **** -0.24
14202 H 4.169019012618264 115.389120311839 28.509150903856522 H 0.0 **** 0.06
14203 H 4.760620580927679 115.03871296305424 26.866597505703538 H 0.0 **** 0.06
14204 H 3.618512007819845 116.37830159365795 27.135879396252307 H 0.0 **** 0.06
14205 H 3.0677295578339283 114.69389423038321 27.2960719884868 H 0.0 **** 0.06
14206 C 18.76421015457023 126.59873148093584 101.32117049093955 C 0.0 **** -0.24
14207 H 18.608458234605123 127.6729609550069 101.23134986404372 H 0.0 **** 0.06
14208 H 18.076323564954038 126.07480850347324 100.65687216036164 H 0.0 **** 0.06
14209 H 18.582837988337985 126.28897797193956 102.35017600494876 H 0.0 **** 0.06
14210 H 19.79070563052951 126.35673950585796 101.044970534505 H 0.0 **** 0.06
14211 C 71.59759502706851 12.877423891242493 94.69854430521627 C 0.0 **** -0.24
14212 H 70.51168950710876 12.963059835175446 94.74968347315908 H 0.0 **** 0.06
14213 H 71.94018230596657 12.16236392965029 95.44670183868377 H 0.0 **** 0.06
14214 H 72.04787123166172 13.850836603072096 94.89162840985432 H 0.0 **** 0.06
14215 H 71.88864429753052 12.533508670484803 93.70631747675395 H 0.0 **** 0.06
14216 C 80.39994457902071 36.67209606679231 123.81440281242247 C 0.0 **** -0.24
14217 H 81.04784908527611 37.09375043954765 123.04704389000969 H 0.0 **** 0.06
14218 H 79.40597622565932 37.11263347895877 123.7344704079863 H 0.0 **** 0.06
14219 H 80.81472154105325 36.888813460850145 124.79941102385615 H 0.0 **** 0.06
14220 H 80.33117479403765 35.59252262110786 123.67943474319023 H 0.0 **** 0.06
14221 C 22.533129144747136 10.539233199243156 19.2598175272052 C 0.0 **** -0.24
14222 H 23.210233054751143 9.80909923933364 19.702210021582715 H 0.0 **** 0.06
14223 H 22.983442216316064 10.9493724346556 18.355436822275948 H 0.0 **** 0.06
14224 H 22.350421299014556 11.343437037117624 19.97236260338221 H 0.0 **** 0.06
14225 H 21.59015381237407 10.054157822159976 19.0081454071358 H 0.0 **** 0.06
14226 C 122.33675281935501 129.99681192249983 112.96386803014182 C 0.0 **** -0.24
14227 H 122.41143489135874 130.2499743162254 111.90651669995611 H 0.0 **** 0.06
14228 H 122.22993845327125 128.91726727856923 113.07206944752475 H 0.0 **** 0.06
14229 H 121.46752217996945 130.49309412638385 113.39576912502456 H 0.0 **** 0.06
14230 H 123.23752811538111 130.3274802415113 113.48054082346361 H 0.0 **** 0.06
14231 C 4.854889633021742 4.18145050880986 71.8956224472199 C 0.0 **** -0.24
14232 H 4.876826271448579 5.266858638086092 71.79705035191938 H 0.0 **** 0.06
14233 H 4.65109501028428 3.733019650581525 70.92176714491947 H 0.0 **** 0.06
14234 H 4.072630642515776 3.895552617454996 72.5987339129392 H 0.0 **** 0.06
14235 H 5.820002488416321 3.830091650833708 72.26230578316667 H 0.0 **** 0.06
14236 C 39.46008893032342 15.720129606070572 122.64046182792754 C 0.0 **** -0.24
14237 H 39.187372204604685 14.67798665170335 122.81115805555908 H 0.0 **** 0.06
14238 H 40.33565077802746 15.764949717331461 121.9927859228132 H 0.0 **** 0.06
14239 H 39.68819864403383 16.196034125785076 123.59433620784858 H 0.0 **** 0.06
14240 H 38.62838979411572 16.239665213002212 122.16451669129873 H 0.0 **** 0.06
14241 C 26.786935672176412 110.1559529347427 123.79264224257982 C 0.0 **** -0.24
14242 H 27.473952251190013 109.34882498858428 123.5380107863055 H 0.0 **** 0.06
14243 H 26.157542866134918 109.84791828612 124.62763435504286 H 0.0 **** 0.06
14244 H 26.160727411886484 110.38485735091226 122.93031953358735 H 0.0 **** 0.06
14245 H 27.35606968793755 111.04181955362765 124.07336139097508 H 0.0 **** 0.06
14246 C 96.2854223196048 127.87027122078644 22.18736660053753 C 0.0 **** -0.24
14247 H 96.5563615757691 127.5857470809907 23.2044140129428 H 0.0 **** 0.06
14248 H 95.35290918114694 127.37825418198685 21.90852072321116 H 0.0 **** 0.06
14249 H 97.07545533573997 127.56534516275525 21.50178994634873 H 0.0 **** 0.06
14250 H 96.15604432577291 128.95179075502278 22.13513289381219 H 0.0 **** 0.06
14251 C 117.3534414148597 25.44500864301631 9.588621655015942 C 0.0 **** -0.24
14252 H 117.09016631937274 24.830815216867876 10.449240664350839 H 0.0 **** 0.06
14253 H 117.90035986561978 26.325741659518172 9.92532038630705 H 0.0 **** 0.06
14254 H 116.44527386080041 25.755683942935292 9.0720512115102 H 0.0 **** 0.06
14255 H 117.97906254352898 24.86693691337618 8.907623992107801 H 0.0 **** 0.06
14256 C 40.5385046108602 43.70390226613023 51.63674722244404 C 0.0 **** -0.24
14257 H 41.15079247629316 43.407442413088745 52.48904509070249 H 0.0 **** 0.06
14258 H 40.905787994600644 43.20847859634273 50.73724188695729 H 0.0 **** 0.06
14259 H 40.59564101132145 44.78379198277082 51.50716328872065 H 0.0 **** 0.06
14260 H 39.50347879798028 43.41305723489171 51.81530305261896 H 0.0 **** 0.06
14261 C 112.47159724272956 11.504502135709231 55.28307686591134 C 0.0 **** -0.24
14262 H 113.11090762721597 11.222973491167636 56.12033690518493 H 0.0 **** 0.06
14263 H 112.72014746903375 10.892758941264958 54.41478853762567 H 0.0 **** 0.06
14264 H 112.62901249410453 12.55626249176305 55.04417299605308 H 0.0 **** 0.06
14265 H 111.42837272234823 11.345335527024076 55.55358562550046 H 0.0 **** 0.06
14266 C 87.49403283667243 37.40225786625797 123.4783880325912 C 0.0 **** -0.24
14267 H 87.4947125298566 36.335817978589006 123.70320342079918 H 0.0 **** 0.06
14268 H 88.39595735175709 37.85930392419209 123.88600251023288 H 0.0 **** 0.06
14269 H 86.61595527527822 37.86723285289895 123.92534828327379 H 0.0 **** 0.06
14270 H 87.47125626498482 37.544788071726245 122.39782713326457 H 0.0 **** 0.06
14271 C 16.13648424610865 80.47857800488589 83.72123642874749 C 0.0 **** -0.24
14272 H 16.857821223549124 80.65762891987993 82.9248827896684 H 0.0 **** 0.06
14273 H 16.36701265266369 81.12007070171444 84.57228007611258 H 0.0 **** 0.06
14274 H 16.186145842896146 79.43412478477094 84.02869480637128 H 0.0 **** 0.06
14275 H 15.13288791420483 80.70298600785074 83.35787572094017 H 0.0 **** 0.06
14276 C 126.49941826898774 127.14842530020738 55.02782157632164 C 0.0 **** -0.24
14277 H 127.1840567085794 127.22577940946033 55.87216214251623 H 0.0 **** 0.06
14278 H 126.19871110371894 128.1474098048242 54.71116140893571 H 0.0 **** 0.06
14279 H 125.61783194568702 126.58065968046523 55.32577331376716 H 0.0 **** 0.06
14280 H 126.99707331796553 126.63985230607958 54.20218944006761 H 0.0 **** 0.06
14281 C 109.5109881906092 72.55524439190327 114.14385273672876 C 0.0 **** -0.24
14282 H 109.27353896478964 73.48864076239627 114.65632192575204 H 0.0 **** 0.06
14283 H 110.46682178926508 72.65707599890078 113.62920240192939 H 0.0 **** 0.06
14284 H 108.72958878048283 72.33039912164344 113.41859141668805 H 0.0 **** 0.06
14285 H 109.5745753219441 71.74737950427519 114.87282287934191 H 0.0 **** 0.06
14286 C 124.51639498824103 27.904943344952514 6.074004384490838 C 0.0 **** -0.24
14287 H 124.03709378536358 28.840200708332397 6.364494540926728 H 0.0 **** 0.06
14288 H 124.14707864742293 27.59637914517782 5.095286282783281 H 0.0 **** 0.06
14289 H 124.28456178257517 27.134236530342214 6.810105548059678 H 0.0 **** 0.06
14290 H 125.59543795229423 28.048966773487848 6.026265913453567 H 0.0 **** 0.06
14291 C 34.29013266181792 22.64605719141241 66.80183148616396 C 0.0 **** -0.24
14292 H 33.37942354993953 23.06339744010728 67.22996047421634 H 0.0 **** 0.06
14293 H 34.42061048902269 23.023090443537797 65.78744106003074 H 0.0 **** 0.06
14294 H 34.215246882673455 21.558551141015244 66.7785458640455 H 0.0 **** 0.06
14295 H 35.14516582882155 22.93807082262464 67.41223941506166 H 0.0 **** 0.06
14296 C 2.516665861079133 101.02100379058058 34.5343152891183 C 0.0 **** -0.24
14297 H 3.10219479529988 100.4266612267842 33.8319276979114 H 0.0 **** 0.06
14298 H 2.655699687725587 100.63182561474045 35.542649747536586 H 0.0 **** 0.06
14299 H 1.4613488641300592 100.96563607286194 34.265395271294494 H 0.0 **** 0.06
14300 H 2.8467553855751646 102.05829398111192 34.49555522382872 H 0.0 **** 0.06
14301 C 94.213773408624 15.47189005839246 23.971237113736578 C 0.0 **** -0.24
14302 H 95.25230542890839 15.768981982581835 23.820084250087007 H 0.0 **** 0.06
14303 H 94.05203852521691 14.483954834673227 23.538355637522784 H 0.0 **** 0.06
14304 H 93.55675470016959 16.19340525695131 23.48582420456802 H 0.0 **** 0.06
14305 H 93.99560410076681 15.442425049476896 25.038458458277688 H 0.0 **** 0.06
14306 C 126.48222668946269 30.417824528568104 86.36871968596067 C 0.0 **** -0.24
14307 H 126.99084709912015 31.044403890271724 87.10082145853877 H 0.0 **** 0.06
14308 H 125.78779776561106 31.02693419991968 85.78906943684055 H 0.0 **** 0.06
14309 H 125.9332318821819 29.628818994389405 86.88279209668508 H 0.0 **** 0.06
14310 H 127.21829787307749 29.970532927117034 85.70045706934607 H 0.0 **** 0.06
14311 C 125.59198641872608 126.79268849865545 60.84467212997261 C 0.0 **** -0.24
14312 H 124.79583235266477 127.3843611825204 60.394283925931774 H 0.0 **** 0.06
14313 H 125.57267095718396 126.9227216847431 61.926597145221194 H 0.0 **** 0.06
14314 H 126.55501611369543 127.12346253285173 60.455623521418374 H 0.0 **** 0.06
14315 H 125.44442625135981 125.74020859450641 60.60218392731896 H 0.0 **** 0.06
14316 C 90.0120182378185 111.646423209934 3.8830323651259846 C 0.0 **** -0.24
14317 H 90.35006520795696 112.48254856125325 3.2713510095258584 H 0.0 **** 0.06
14318 H 90.77627489449 110.8682665653835 3.8890784917322208 H 0.0 **** 0.06
14319 H 89.08658178116269 111.24432793870818 3.470646342951511 H 0.0 **** 0.06
14320 H 89.83569218917552 111.99038060327874 4.902349255342415 H 0.0 **** 0.06
14321 C 26.860381195279388 0.6899762403443219 116.4118130822672 C 0.0 **** -0.24
14322 H 27.09601549996796 0.6448092777850434 115.34888512179816 H 0.0 **** 0.06
14323 H 27.575343897867583 1.3413380459656707 116.91438506443518 H 0.0 **** 0.06
14324 H 26.919389278884125 -0.3121948036065021 116.83888665073846 H 0.0 **** 0.06
14325 H 25.852722485485515 1.0830798374199446 116.54411545366241 H 0.0 **** 0.06
14326 C 126.01939354411226 62.39069990635517 5.308428945012309 C 0.0 **** -0.24
14327 H 127.03513280660056 62.02537843398375 5.4556783017963255 H 0.0 **** 0.06
14328 H 125.84765939159652 63.255207549357635 5.9498659233431965 H 0.0 **** 0.06
14329 H 125.30896868241825 61.603356918976885 5.561061136933432 H 0.0 **** 0.06
14330 H 125.88505950243274 62.68006942373654 4.265389536682193 H 0.0 **** 0.06
14331 C 39.215793254553255 106.31689499900318 65.19177787041492 C 0.0 **** -0.24
14332 H 38.44960961492153 106.6099896165085 65.90943909851595 H 0.0 **** 0.06
14333 H 39.51248621380111 105.28464030387042 65.37772411199494 H 0.0 **** 0.06
14334 H 40.08221319518936 106.96983856563284 65.29946576954097 H 0.0 **** 0.06
14335 H 38.81842658580057 106.40530444201826 64.1804841499714 H 0.0 **** 0.06
14336 C 1.1566889868627186 92.50238301264797 45.121171774659445 C 0.0 **** -0.24
14337 H 1.2922378722220742 91.42469552289887 45.03419705660325 H 0.0 **** 0.06
14338 H 0.1772658182964051 92.71243739663839 45.552291186026864 H 0.0 **** 0.06
14339 H 1.2255559126261915 92.9579505074547 44.13300624682665 H 0.0 **** 0.06
14340 H 1.9340013011587303 92.91483620462996 45.76592561023676 H 0.0 **** 0.06
14341 C 110.90022022994049 10.823377288880522 0.3828776683189403 C 0.0 **** -0.24
14342 H 111.50976687845784 10.647212446683795 -0.503538324974528 H 0.0 **** 0.06
14343 H 110.83329599158661 9.903915127720893 0.9651387744947044 H 0.0 **** 0.06
14344 H 109.90118311432234 11.13539747208688 0.07908053964496276 H 0.0 **** 0.06
14345 H 111.35688866903851 11.604854058805302 0.9889860591842137 H 0.0 **** 0.06
14346 C 54.43205036220721 118.98920466900478 14.964681372037404 C 0.0 **** -0.24
14347 H 53.552584258290295 118.59363417592954 15.472751076887533 H 0.0 **** 0.06
14348 H 54.1351527530596 119.80768112746728 14.309776415623872 H 0.0 **** 0.06
14349 H 54.894604334600984 118.199196782814 14.373287411996273 H 0.0 **** 0.06
14350 H 55.144726883346806 119.35443352062202 15.703366330352168 H 0.0 **** 0.06
14351 C 111.28301730244317 117.62586997875488 3.95484561554872 C 0.0 **** -0.24
14352 H 111.44020542374042 117.51747543350271 5.027764512445572 H 0.0 **** 0.06
14353 H 111.58247057482674 116.70633498240511 3.4505930247897254 H 0.0 **** 0.06
14354 H 111.88193510387363 118.45683998223896 3.5824173947011673 H 0.0 **** 0.06
14355 H 110.22927756511842 117.82145765624148 3.7595063669881483 H 0.0 **** 0.06
14356 C 63.18323949299227 25.08343422496435 105.68233882318557 C 0.0 **** -0.24
14357 H 62.28773698620992 24.942673473030595 105.07726434282773 H 0.0 **** 0.06
14358 H 63.4726358459136 26.13497552678001 105.66351839414652 H 0.0 **** 0.06
14359 H 63.99283880567515 24.475797307549755 105.27915927237376 H 0.0 **** 0.06
14360 H 62.977728301985394 24.781214883679354 106.7091421530637 H 0.0 **** 0.06
14361 C 65.68827794266599 108.89292151039399 95.9445338300315 C 0.0 **** -0.24
14362 H 65.3083978982284 108.74002551451181 94.9344360974955 H 0.0 **** 0.06
14363 H 66.66826796770567 108.42470225319272 96.03875574468174 H 0.0 **** 0.06
14364 H 65.0004659316727 108.44559225192944 96.6621644078233 H 0.0 **** 0.06
14365 H 65.77589569153758 109.96148170130942 96.14178933740453 H 0.0 **** 0.06
14366 C 64.01016731683004 14.00794567761367 70.22689652040702 C 0.0 **** -0.24
14367 H 63.401356762237384 14.75411510975174 69.71560071736155 H 0.0 **** 0.06
14368 H 65.03188995792777 14.05014689675696 69.84674064488013 H 0.0 **** 0.06
14369 H 63.59576280451543 13.016009259516068 70.0487323443947 H 0.0 **** 0.06
14370 H 64.0126182690856 14.214089970158987 71.29717031093912 H 0.0 **** 0.06
14371 C 64.58562747151329 89.265452046414 27.673485408294532 C 0.0 **** -0.24
14372 H 63.714341532177286 89.15387121143192 27.028008060905847 H 0.0 **** 0.06
14373 H 65.21322714991592 88.3780493376604 27.594843721663388 H 0.0 **** 0.06
14374 H 64.2586447306142 89.38954107007635 28.706029204533976 H 0.0 **** 0.06
14375 H 65.15532895936444 90.14235626223154 27.365219766963655 H 0.0 **** 0.06
14376 C 117.37898610984568 102.55234327783039 121.64642724953956 C 0.0 **** -0.24
14377 H 117.30322721640268 103.63884654589904 121.69462199315808 H 0.0 **** 0.06
14378 H 118.01225490722092 102.19652699256083 122.4592789491781 H 0.0 **** 0.06
14379 H 117.81502927113355 102.26040951678598 120.6906790870579 H 0.0 **** 0.06
14380 H 116.38559624075033 102.11457552771606 121.74108133872659 H 0.0 **** 0.06
14381 C 24.89383895263586 34.91499473709602 32.508854184642104 C 0.0 **** -0.24
14382 H 25.32169971435843 34.91608420228372 33.51183250109361 H 0.0 **** 0.06
14383 H 25.143616004587443 33.97869080697866 32.00855236121865 H 0.0 **** 0.06
14384 H 25.299695097407266 35.75035928326185 31.939347146356283 H 0.0 **** 0.06
14385 H 23.81062827720541 35.01276147948311 32.57644657415139 H 0.0 **** 0.06
14386 C 82.97386892769909 88.4203050758888 63.44173198687281 C 0.0 **** -0.24
14387 H 82.92131955138034 87.75508302166507 62.57951931920711 H 0.0 **** 0.06
14388 H 83.6476488453388 89.24878162193644 63.21949158393657 H 0.0 **** 0.06
14389 H 83.3469387469507 87.86946439805749 64.30469194117235 H 0.0 **** 0.06
14390 H 81.97962478179957 88.80947090283601 63.6616433781178 H 0.0 **** 0.06
14391 C 4.84837414009969 27.847211423068558 77.28918385695465 C 0.0 **** -0.24
14392 H 5.230939569170946 28.244766646335563 78.22948223119559 H 0.0 **** 0.06
14393 H 5.683004007655242 27.609375280488564 76.62912668908515 H 0.0 **** 0.06
14394 H 4.208577954937365 28.590246765523887 76.8136349507931 H 0.0 **** 0.06
14395 H 4.271351018358892 26.943518829419958 77.48548078863226 H 0.0 **** 0.06
14396 C 12.431814478025501 0.14347063743713306 68.77390940639904 C 0.0 **** -0.24
14397 H 13.165016943667894 -0.03937372657929927 67.98847860592349 H 0.0 **** 0.06
14398 H 11.427187217127369 0.008801735711642777 68.37081645987651 H 0.0 **** 0.06
14399 H 12.542480331334275 1.1630278219620322 69.14273411781441 H 0.0 **** 0.06
14400 H 12.592437025855418 -0.558189815867081 69.59119293239434 H 0.0 **** 0.06
14401 C 63.68391937593108 54.775424582185565 48.61578977554434 C 0.0 **** -0.24
14402 H 63.16350100155282 53.82830950535475 48.75959256085454 H 0.0 **** 0.06
14403 H 63.74766148983318 54.9967148717883 47.55007871818375 H 0.0 **** 0.06
14404 H 64.6891478504584 54.70443426001401 49.03293200280112 H 0.0 **** 0.06
14405 H 63.136191448488745 55.571720897388104 49.12078266856271 H 0.0 **** 0.06
14406 C 116.8214552586203 40.14434172216312 73.96738620856176 C 0.0 **** -0.24
14407 H 117.74382986550731 40.35764374456605 74.5077118587813 H 0.0 **** 0.06
14408 H 116.39421268182069 41.0772495738365 73.59679572389115 H 0.0 **** 0.06
14409 H 116.11104471095946 39.659396122542375 74.63667020785589 H 0.0 **** 0.06
14410 H 117.03701423645384 39.48456541054361 73.12672156859394 H 0.0 **** 0.06
14411 C 84.43451101239299 103.51802445270685 6.299782866120438 C 0.0 **** -0.24
14412 H 83.92293652519206 103.05421445127811 5.455254947375522 H 0.0 **** 0.06
14413 H 85.41741777052354 103.06388256111656 6.423463468150601 H 0.0 **** 0.06
14414 H 83.8468571794919 103.3670330561333 7.205933021628212 H 0.0 **** 0.06
14415 H 84.5475787778843 104.5855248822852 6.113904101304499 H 0.0 **** 0.06
14416 C 26.357904689293377 24.59106313340442 5.554839754330885 C 0.0 **** -0.24
14417 H 26.664343115346583 25.546929968447472 5.129268858254562 H 0.0 **** 0.06
14418 H 25.601295091385197 24.761293084798524 6.320879020977486 H 0.0 **** 0.06
14419 H 27.221935318082018 24.097819343074278 6.000800671886481 H 0.0 **** 0.06
14420 H 25.94400844139801 23.95938624489952 4.769195022915397 H 0.0 **** 0.06
14421 C 5.4748497829532425 75.84616715111923 32.656560488850616 C 0.0 **** -0.24
14422 H 5.980960114292543 75.7251118155394 31.69765354284926 H 0.0 **** 0.06
14423 H 5.288290495554179 74.86532811253394 33.0942863185206 H 0.0 **** 0.06
14424 H 4.527575614872092 76.36223342331462 32.50351257009778 H 0.0 **** 0.06
14425 H 6.104090788641997 76.43126185914184 33.32744902214372 H 0.0 **** 0.06
14426 C 69.35831962033892 115.44864016896629 15.618096850662745 C 0.0 **** -0.24
14427 H 69.41233837992775 114.59573199841718 16.293629986987327 H 0.0 **** 0.06
14428 H 68.38302357634353 115.46398239966412 15.13037789512175 H 0.0 **** 0.06
14429 H 70.14028497178293 115.3657442079571 14.863610343261609 H 0.0 **** 0.06
14430 H 69.49543017796447 116.37014744841991 16.18501710048989 H 0.0 **** 0.06
14431 C 123.16445804521848 106.83758931719241 84.22638213739208 C 0.0 **** -0.24
14432 H 123.88610479824214 106.71441191876086 85.03353065204058 H 0.0 **** 0.06
14433 H 123.56545013120015 107.52676075675718 83.48241936497527 H 0.0 **** 0.06
14434 H 122.2344682663238 107.23757438568546 84.62929202260071 H 0.0 **** 0.06
14435 H 122.97277779687929 105.87057993556897 83.76027907610904 H 0.0 **** 0.06
14436 C 59.53595116716491 41.311709789227905 129.11183793513467 C 0.0 **** -0.24
14437 H 59.29997129894582 41.942097292718614 129.9693795297355 H 0.0 **** 0.06
14438 H 58.934958834932246 40.40275025455918 129.1519041434526 H 0.0 **** 0.06
14439 H 60.59357805926494 41.049963336538724 129.13371466160726 H 0.0 **** 0.06
14440 H 59.316229952460816 41.8539910111746 128.19182751623833 H 0.0 **** 0.06
14441 C 12.9991136646955 87.41744709730428 7.563389050573814 C 0.0 **** -0.24
14442 H 11.941526511240415 87.49417468161947 7.8144482497163565 H 0.0 **** 0.06
14443 H 13.595488021046041 87.51237915195591 8.471381373734097 H 0.0 **** 0.06
14444 H 13.265389179403488 88.21344214901016 6.867850620463468 H 0.0 **** 0.06
14445 H 13.193051991147911 86.44974675123197 7.099868306232878 H 0.0 **** 0.06
14446 C 34.46887079488923 88.90177624246263 10.174641394871017 C 0.0 **** -0.24
14447 H 35.24841965698897 88.29484059072475 10.636273516488771 H 0.0 **** 0.06
14448 H 33.92760283662946 88.30144914368636 9.443376844936637 H 0.0 **** 0.06
14449 H 34.922940604946064 89.75895999246622 9.676724595988759 H 0.0 **** 0.06
14450 H 33.77769703616042 89.2506791479762 10.941709223132008 H 0.0 **** 0.06
14451 C 50.56547378689817 80.73592077924246 4.02339493387143 C 0.0 **** -0.24
14452 H 49.52671555787646 80.44746545061929 3.8667352390350516 H 0.0 **** 0.06
14453 H 51.18282387524552 80.31567251118082 3.229084061213541 H 0.0 **** 0.06
14454 H 50.905757655971996 80.35698105348598 4.987226898882227 H 0.0 **** 0.06
14455 H 50.646869426154026 81.82219690786735 4.010772811432048 H 0.0 **** 0.06
14456 C 49.28927757008444 72.81793511419414 106.02369232719681 C 0.0 **** -0.24
14457 H 49.58080400295711 71.83783096517007 106.40152387619182 H 0.0 **** 0.06
14458 H 48.27469341027992 73.04474829617232 106.35044790003764 H 0.0 **** 0.06
14459 H 49.328967587416514 72.81399829029601 104.93506080291743 H 0.0 **** 0.06
14460 H 49.9737127978409 73.57374297490193 106.40942330569979 H 0.0 **** 0.06
14461 C 66.21968405843113 36.45161212157507 12.969613795589794 C 0.0 **** -0.24
14462 H 66.05460251714692 37.07294196762621 12.089633254610362 H 0.0 **** 0.06
14463 H 65.81422690427287 35.456351532190865 12.792587744104992 H 0.0 **** 0.06
14464 H 65.7216961548019 36.900466125286414 13.829121565865648 H 0.0 **** 0.06
14465 H 67.28965792955556 36.37928060120413 13.16754711850524 H 0.0 **** 0.06
14466 C 59.91233915453506 47.631165195653466 57.5354632700986 C 0.0 **** -0.24
14467 H 59.069374814242806 47.16467073608396 58.044942898290486 H 0.0 **** 0.06
14468 H 59.640763213274695 48.64298297440962 57.234935823774634 H 0.0 **** 0.06
14469 H 60.17240986200564 47.047288866964436 56.65208556241342 H 0.0 **** 0.06
14470 H 60.76812140156848 47.669200418122614 58.20979446559787 H 0.0 **** 0.06
14471 C 74.15983155219209 28.90863694704963 2.123629683934954 C 0.0 **** -0.24
14472 H 74.44648051271719 29.595482917891246 2.920442394947269 H 0.0 **** 0.06
14473 H 73.28645476749617 28.335534818683357 2.4362995770013107 H 0.0 **** 0.06
14474 H 74.98623163095377 28.228948219107565 1.9148962800460971 H 0.0 **** 0.06
14475 H 73.91914144268114 29.4755780467016 1.2246043771308486 H 0.0 **** 0.06
14476 C 21.529230430195057 79.12495926124417 44.59004193854756 C 0.0 **** -0.24
14477 H 21.324606654643574 80.0208086739877 44.00445815603217 H 0.0 **** 0.06
14478 H 21.93190702075811 78.3489283717038 43.93772898356016 H 0.0 **** 0.06
14479 H 20.606219355981068 78.7709393483849 45.04846084093148 H 0.0 **** 0.06
14480 H 22.25574637919992 79.3573928638956 45.36884979808467 H 0.0 **** 0.06
14481 C 49.17556332613596 94.05693131154504 59.57513033546027 C 0.0 **** -0.24
14482 H 48.34462477286441 94.01187038239121 60.280645198961395 H 0.0 **** 0.06
14483 H 49.83039651487435 94.8870445109325 59.83883092949499 H 0.0 **** 0.06
14484 H 48.787781121784334 94.20421574877713 58.567190495469376 H 0.0 **** 0.06
14485 H 49.73646979060591 93.12307013695266 59.615524987276316 H 0.0 **** 0.06
14486 C 74.77014098525729 18.167189699849644 22.090946740059366 C 0.0 **** -0.24
14487 H 73.70676179946147 17.96398334752378 22.21758147208007 H 0.0 **** 0.06
14488 H 74.90614205991992 19.195524345608973 21.754417252162426 H 0.0 **** 0.06
14489 H 75.18358904095227 17.4848904252471 21.347465107322904 H 0.0 **** 0.06
14490 H 75.28307175292264 18.02496977226616 23.041560713906023 H 0.0 **** 0.06
14491 C 88.77317452731157 105.84267071606244 52.528723391105245 C 0.0 **** -0.24
14492 H 88.64542598284436 105.40299826755297 53.517852256189826 H 0.0 **** 0.06
14493 H 89.20128705908272 105.10157834332956 51.85387065538487 H 0.0 **** 0.06
14494 H 89.44097435898138 106.70182837211878 52.59738208899108 H 0.0 **** 0.06
14495 H 87.80479338726437 106.16611320285118 52.1473962646545 H 0.0 **** 0.06
14496 C 111.7099114965595 51.94605594255998 28.832188429743383 C 0.0 **** -0.24
14497 H 111.10092578181155 52.430040706278135 28.068045335370982 H 0.0 **** 0.06
14498 H 112.62625237146422 52.51821606641187 28.981766961290333 H 0.0 **** 0.06
14499 H 111.96043000417937 50.93544927814597 28.510245738987948 H 0.0 **** 0.06
14500 H 111.1520171878773 51.90217405268247 29.768189420674247 H 0.0 **** 0.06
14501 C 56.71524039280192 19.67077824295292 104.76963291783784 C 0.0 **** -0.24
14502 H 57.375462664839205 20.14746611376239 104.04559448429904 H 0.0 **** 0.06
14503 H 56.80138720872273 20.17990267220955 105.73026374502979 H 0.0 **** 0.06
14504 H 56.99948704834841 18.624158482989202 104.88567805785931 H 0.0 **** 0.06
14505 H 55.68539976173565 19.730407550859127 104.41688922159489 H 0.0 **** 0.06
14506 C 75.44561030290473 99.58764688393205 84.50464041654782 C 0.0 **** -0.24
14507 H 76.53416945202 99.6466948398483 84.46648431356728 H 0.0 **** 0.06
14508 H 75.14846343494312 98.79858319892367 85.19563442927566 H 0.0 **** 0.06
14509 H 75.06015393675094 99.36426212231433 83.50914095109722 H 0.0 **** 0.06
14510 H 75.04267734755211 100.54067310870886 84.8453726284969 H 0.0 **** 0.06
14511 C 112.41131622943902 38.71417923608047 22.934875170190708 C 0.0 **** -0.24
14512 H 111.5649381386304 38.03555422683948 22.821297935861367 H 0.0 **** 0.06
14513 H 113.34098087066315 38.15162865361164 22.850661444995183 H 0.0 **** 0.06
14514 H 112.36371314108263 39.19348857232691 23.91226349140345 H 0.0 **** 0.06
14515 H 112.37308687771161 39.47445922700214 22.155225711081528 H 0.0 **** 0.06
14516 C 20.542133817252164 84.42195447422877 27.382720393366753 C 0.0 **** -0.24
14517 H 21.32838090835085 83.81699245984255 26.929858376188932 H 0.0 **** 0.06
14518 H 19.780118309030115 83.76728822327868 27.807434439084318 H 0.0 **** 0.06
14519 H 20.090990503881187 85.058882147667 26.62121899836164 H 0.0 **** 0.06
14520 H 20.969357663243215 85.04212615127611 28.169629694707965 H 0.0 **** 0.06
14521 C 62.17680770835452 50.61387083242222 124.73532248115006 C 0.0 **** -0.24
14522 H 62.295300188432805 51.30569370302955 123.90136017965362 H 0.0 **** 0.06
14523 H 61.55470587582049 49.77425486147307 124.42517444550816 H 0.0 **** 0.06
14524 H 61.70240796974073 51.12930111777203 125.56996787702765 H 0.0 **** 0.06
14525 H 63.15580921282444 50.246733806479654 125.04391274049709 H 0.0 **** 0.06
14526 C 0.2322139527631748 15.36628237753473 77.89817755821555 C 0.0 **** -0.24
14527 H 0.18615979556395246 16.35927306030453 77.45026012589358 H 0.0 **** 0.06
14528 H 1.2104335536268138 15.220878130922756 78.35646948086496 H 0.0 **** 0.06
14529 H 0.07566797459796248 14.611553455408 77.12766729609842 H 0.0 **** 0.06
14530 H -0.5434016906091017 15.275173896397746 78.65928342954928 H 0.0 **** 0.06
14531 C 35.365185976403126 80.29810054104111 27.247463573900575 C 0.0 **** -0.24
14532 H 35.79095597455041 79.40094728203472 27.6958053589957 H 0.0 **** 0.06
14533 H 34.46553326971447 80.58483685754645 27.793059419721345 H 0.0 **** 0.06
14534 H 35.109640243229165 80.09756239166263 26.206806896614438 H 0.0 **** 0.06
14535 H 36.09241600756132 81.10867230335344 27.294040039729623 H 0.0 **** 0.06
14536 C 108.28920604896445 113.19413776684172 55.53484920415548 C 0.0 **** -0.24
14537 H 107.2867634606231 113.62323178055362 55.53320445239069 H 0.0 **** 0.06
14538 H 108.23615058650711 112.15028359184583 55.84346065189982 H 0.0 **** 0.06
14539 H 108.91986432476645 113.74806872191454 56.22971254811068 H 0.0 **** 0.06
14540 H 108.7116924409828 113.25605424858179 54.531509222492076 H 0.0 **** 0.06
14541 C 86.94608983828918 36.28810763292847 19.1475334578777 C 0.0 **** -0.24
14542 H 86.07815352576196 36.70719935386032 19.658032466757533 H 0.0 **** 0.06
14543 H 87.35943154729131 35.475414498185756 19.743944314457465 H 0.0 **** 0.06
14544 H 87.70035687759132 37.064066020804916 19.017609354592366 H 0.0 **** 0.06
14545 H 86.64416891613962 35.90739987542409 18.172039323424855 H 0.0 **** 0.06
14546 C 86.43590751630435 13.63094911763443 78.99021130064494 C 0.0 **** -0.24
14547 H 86.25425410406999 13.787209087089082 80.05398025146371 H 0.0 **** 0.06
14548 H 87.13776899363981 12.808059878997824 78.85963885081986 H 0.0 **** 0.06
14549 H 86.85486995363686 14.539359855916132 78.55635542031894 H 0.0 **** 0.06
14550 H 85.49645500916034 13.390248598231778 78.49305067006708 H 0.0 **** 0.06
14551 C 86.55137830082117 114.6885813355264 99.750195409506 C 0.0 **** -0.24
14552 H 87.17077807062685 113.81276005880623 99.55547120470183 H 0.0 **** 0.06
14553 H 86.32791948002094 114.74483953859529 100.81547454163544 H 0.0 **** 0.06
14554 H 85.622425548466 114.60969159940954 99.18712919867315 H 0.0 **** 0.06
14555 H 87.08756500239016 115.5870726768257 99.44366541719674 H 0.0 **** 0.06
14556 C 106.54553685917568 47.602422634200025 99.64366755850865 C 0.0 **** -0.24
14557 H 107.26671699426727 47.600494592037855 98.82673492332913 H 0.0 **** 0.06
14558 H 105.5560525723855 47.35960763051257 99.25566727927398 H 0.0 **** 0.06
14559 H 106.52378471558764 48.58948744376056 100.10606284645534 H 0.0 **** 0.06
14560 H 106.83708923638493 46.85929781699775 100.38654725488078 H 0.0 **** 0.06
14561 C 117.89614625403595 93.50947481160985 91.11282698338601 C 0.0 **** -0.24
14562 H 117.92780206823717 94.3445492435992 91.81335116363543 H 0.0 **** 0.06
14563 H 117.59241252831751 92.60496050610753 91.640160071484 H 0.0 **** 0.06
14564 H 118.88582238927496 93.36232450994967 90.67869395242484 H 0.0 **** 0.06
14565 H 117.18010757744617 93.72725699147765 90.32017382830138 H 0.0 **** 0.06
14566 C 60.84598202348744 119.35267197357422 80.2973094432769 C 0.0 **** -0.24
14567 H 61.166132275951384 119.60286234515394 79.28565135472115 H 0.0 **** 0.06
14568 H 59.776708021459626 119.53952377820906 80.3950640612826 H 0.0 **** 0.06
14569 H 61.39037930681326 119.97002055167138 81.01245687326161 H 0.0 **** 0.06
14570 H 61.05191275114143 118.30092552228552 80.49370790049278 H 0.0 **** 0.06
14571 C 127.66267780055762 60.48629912488788 53.54919748607935 C 0.0 **** -0.24
14572 H 127.06636319418777 61.36303578499266 53.79943361479661 H 0.0 **** 0.06
14573 H 128.51783650851775 60.424592289496346 54.222629998673256 H 0.0 **** 0.06
14574 H 128.0154145945347 60.56837956180752 52.520445279076114 H 0.0 **** 0.06
14575 H 127.05173236285913 59.589756725873386 53.65375781062937 H 0.0 **** 0.06
14576 C 1.0935794170947588 19.84355098373141 80.23051171597234 C 0.0 **** -0.24
14577 H 0.7808832648292707 19.951022767913813 81.26918702890606 H 0.0 **** 0.06
14578 H 0.2807808415211923 19.406296349473187 79.65043383983758 H 0.0 **** 0.06
14579 H 1.9670569997787481 19.193256099483037 80.18019311939148 H 0.0 **** 0.06
14580 H 1.345995803022987 20.822840049996223 79.8233368329071 H 0.0 **** 0.06
14581 C 12.72854413440453 14.951261069814166 32.133062144737906 C 0.0 **** -0.24
14582 H 12.074798991777328 15.681715446902615 32.6084831138329 H 0.0 **** 0.06
14583 H 13.57936410924566 14.746392022421787 32.783849041877396 H 0.0 **** 0.06
14584 H 13.085426349683331 15.34845591205925 31.182033809606686 H 0.0 **** 0.06
14585 H 12.175403321565597 14.029230905481569 31.955940571070144 H 0.0 **** 0.06
14586 C 38.97963184984019 101.268344102339 67.51276947831221 C 0.0 **** -0.24
14587 H 38.70312405690257 102.3185747113059 67.41978250478402 H 0.0 **** 0.06
14588 H 38.127120735277146 100.64351735659535 67.24616149641898 H 0.0 **** 0.06
14589 H 39.27519451062861 101.06121638976606 68.54182601524832 H 0.0 **** 0.06
14590 H 39.81229540804526 101.0519379387905 66.84424335011761 H 0.0 **** 0.06
14591 C 118.41835152966539 99.36939570737886 41.26965840845098 C 0.0 **** -0.24
14592 H 118.04379595351017 99.27524778549842 42.28914935105212 H 0.0 **** 0.06
14593 H 119.36631185265148 98.83843782042742 41.18031389682892 H 0.0 **** 0.06
14594 H 118.56816599337611 100.42352759862085 41.03476674894833 H 0.0 **** 0.06
14595 H 117.69406774844464 98.94211408261125 40.57635914314834 H 0.0 **** 0.06
14596 C 111.58015787452467 57.636953139759626 84.34395283038958 C 0.0 **** -0.24
14597 H 111.94595133488207 58.64584986525739 84.15642965636829 H 0.0 **** 0.06
14598 H 112.4212575292135 56.98412882668356 84.58198513710312 H 0.0 **** 0.06
14599 H 111.07109528675613 57.26336373951757 83.45521623421917 H 0.0 **** 0.06
14600 H 110.88372967168789 57.65274432622242 85.18194497369751 H 0.0 **** 0.06
14601 C 39.66811654560385 123.79102642608285 17.908807147630853 C 0.0 **** -0.24
14602 H 39.588162847623394 124.8632896688081 18.083988033879194 H 0.0 **** 0.06
14603 H 39.97066944922189 123.2936953391145 18.830476835767115 H 0.0 **** 0.06
14604 H 40.412260361661595 123.60462689339798 17.13396412598516 H 0.0 **** 0.06
14605 H 38.70222095586246 123.40292570840474 17.585752967588746 H 0.0 **** 0.06
14606 C 33.5534641485564 114.57216207021894 47.42702778742457 C 0.0 **** -0.24
14607 H 32.68353444181824 114.23025014707095 47.988250597515496 H 0.0 **** 0.06
14608 H 34.051925070784364 113.71487781952125 46.97288576289735 H 0.0 **** 0.06
14609 H 34.2439904595613 115.08014353860737 48.09971617805956 H 0.0 **** 0.06
14610 H 33.233426230858 115.26223312332051 46.64640359062643 H 0.0 **** 0.06
14611 C 30.74942383386042 40.243155341243494 2.009716330067228 C 0.0 **** -0.24
14612 H 31.755939752868898 39.8251027425099 1.9857118137178205 H 0.0 **** 0.06
14613 H 30.026376612113836 39.4392220823799 2.1482714141099706 H 0.0 **** 0.06
14614 H 30.546952873245118 40.75578072129059 1.068872959588525 H 0.0 **** 0.06
14615 H 30.66848715464934 40.95127693755609 2.834148561699486 H 0.0 **** 0.06
14616 C 65.3041847080815 63.72383521817595 129.67232566654965 C 0.0 **** -0.24
14617 H 65.01197327796365 64.12495699684324 128.70228019230007 H 0.0 **** 0.06
14618 H 64.96338228254442 62.69100024826275 129.75660619423545 H 0.0 **** 0.06
14619 H 64.8523088034986 64.32163414071752 130.46405106117456 H 0.0 **** 0.06
14620 H 66.38991265016304 63.75567737663941 129.7663012646537 H 0.0 **** 0.06
14621 C 31.31899513505234 79.86314388370602 69.83182230569986 C 0.0 **** -0.24
14622 H 31.029245508989803 78.95056557722745 69.3107566021649 H 0.0 **** 0.06
14623 H 32.394652555230486 79.85322161251582 70.01078373176443 H 0.0 **** 0.06
14624 H 30.792891373018996 79.92010999574998 70.7846896400197 H 0.0 **** 0.06
14625 H 31.06030396973904 80.7278056621241 69.22106676495929 H 0.0 **** 0.06
14626 C 53.85603379675727 127.49292685799196 1.0776025818691437 C 0.0 **** -0.24
14627 H 53.83242253627155 126.41123057552974 0.9404304075913785 H 0.0 **** 0.06
14628 H 53.85448337674197 127.72356089214281 2.143247009783323 H 0.0 **** 0.06
14629 H 52.97808486209914 127.93752162725798 0.6084995525808097 H 0.0 **** 0.06
14630 H 54.75789731801686 127.89758902273667 0.6186644918718116 H 0.0 **** 0.06
14631 C 115.77023737170386 116.42090090461522 107.19190590996682 C 0.0 **** -0.24
14632 H 114.71101725815284 116.65091199743186 107.30662344501053 H 0.0 **** 0.06
14633 H 116.2944619483206 117.29944718553301 106.81444524608268 H 0.0 **** 0.06
14634 H 115.8891296955964 115.59707857990323 106.48837137335495 H 0.0 **** 0.06
14635 H 116.18634058474565 116.13616585559276 108.15818357541936 H 0.0 **** 0.06
14636 C 83.171294541993 81.66638697687992 47.2694118825857 C 0.0 **** -0.24
14637 H 83.48040704429457 81.0589716054998 46.41886882818383 H 0.0 **** 0.06
14638 H 84.02607441300574 81.83164661618835 47.92661671571395 H 0.0 **** 0.06
14639 H 82.38574158245791 81.14820094307186 47.81800022137233 H 0.0 **** 0.06
14640 H 82.79523771762376 82.62491036100408 46.91294363828618 H 0.0 **** 0.06
14641 C 31.613095703644547 127.65506211531388 16.716803208029674 C 0.0 **** -0.24
14642 H 31.46331321160642 128.6734836237033 16.357852896536272 H 0.0 **** 0.06
14643 H 32.16619592851259 127.08544213877798 15.970170983363587 H 0.0 **** 0.06
14644 H 30.644980730805685 127.18533462096923 16.888994725326597 H 0.0 **** 0.06
14645 H 32.17716729924109 127.67820253868138 17.64830475427867 H 0.0 **** 0.06
14646 C 14.78026198846024 93.05549617885285 79.72459855868344 C 0.0 **** -0.24
14647 H 15.220305599660918 93.43076041398203 78.80110854868141 H 0.0 **** 0.06
14648 H 13.842268237245207 93.57729061902188 79.91858527404695 H 0.0 **** 0.06
14649 H 15.469862850795437 93.22829284338499 80.55089114407915 H 0.0 **** 0.06
14650 H 14.589311711525369 91.9868526345515 79.6276066852123 H 0.0 **** 0.06
14651 C 102.37593651409325 89.17730352114938 95.79231501800304 C 0.0 **** -0.24
14652 H 102.686069418679 90.20915332835116 95.63348518517043 H 0.0 **** 0.06
14653 H 102.42559045639298 88.63403240258825 94.84867766973213 H 0.0 **** 0.06
14654 H 101.35291514754361 89.15894771001669 96.16927903258359 H 0.0 **** 0.06
14655 H 103.0388527126243 88.70628056014195 96.51832670591124 H 0.0 **** 0.06
14656 C 53.06312171014574 76.14850089774012 108.29111655395535 C 0.0 **** -0.24
14657 H 52.439651502103175 75.62363426325504 107.56705826530178 H 0.0 **** 0.06
14658 H 53.21877296981842 75.51312862151775 109.16325888814039 H 0.0 **** 0.06
14659 H 52.56555358375485 77.06978333285979 108.5971838845435 H 0.0 **** 0.06
14660 H 54.02430603769298 76.38723950065273 107.8381011841703 H 0.0 **** 0.06
14661 C 88.35342986506802 75.44322751950043 122.92266130201091 C 0.0 **** -0.24
14662 H 88.38016263087104 74.6644849643402 122.16084647616421 H 0.0 **** 0.06
14663 H 89.35835855335584 75.83949535407194 123.07243003591927 H 0.0 **** 0.06
14664 H 87.9852288192662 75.02283589363444 123.8593140793507 H 0.0 **** 0.06
14665 H 87.69072625729869 76.24564622363528 122.59916230845548 H 0.0 **** 0.06
14666 C 89.82906696602058 117.9817310529641 34.60179307474402 C 0.0 **** -0.24
14667 H 90.40391383324342 118.81059225442084 35.01593882990039 H 0.0 **** 0.06
14668 H 88.76392378942822 118.19109541475667 34.70753392635612 H 0.0 **** 0.06
14669 H 90.07519956022603 117.06568254522337 35.13778401328875 H 0.0 **** 0.06
14670 H 90.07352408920607 117.86325892950371 33.54634931917053 H 0.0 **** 0.06
14671 C 8.016132100225036 27.586095771402512 30.713822985210662 C 0.0 **** -0.24
14672 H 7.7442656830036185 26.878083685828614 29.930762308858192 H 0.0 **** 0.06
14673 H 7.389463090486117 28.47320434357755 30.633818674675098 H 0.0 **** 0.06
14674 H 9.063388866405774 27.867860490537964 30.599838618273722 H 0.0 **** 0.06
14675 H 7.869566124939354 27.12244479511301 31.68961839730609 H 0.0 **** 0.06
14676 C 114.12447408465682 64.73478573812983 104.74935899503873 C 0.0 **** -0.24
14677 H 114.98606144306753 64.73410168441004 104.08271579985768 H 0.0 **** 0.06
14678 H 114.01828298494398 63.750226035553425 105.2067441817415 H 0.0 **** 0.06
14679 H 113.22477747938997 64.96974796166381 104.18000824035295 H 0.0 **** 0.06
14680 H 114.2676618737285 65.48374027867126 105.52792934845513 H 0.0 **** 0.06
14681 C 19.914258385627704 89.36843947088397 33.80373492646965 C 0.0 **** -0.24
14682 H 20.04497279524375 90.43439080304364 33.61402451866364 H 0.0 **** 0.06
14683 H 20.887053630750586 88.90787878109109 33.97328928645084 H 0.0 **** 0.06
14684 H 19.43602475527061 88.902212355595 32.94282128760764 H 0.0 **** 0.06
14685 H 19.287425446101793 89.23183910534226 34.68488659922206 H 0.0 **** 0.06
14686 C 130.48863261867854 3.5191726489106827 18.815844824148826 C 0.0 **** -0.24
14687 H 131.4472692946446 3.1771885860671887 19.20701376635793 H 0.0 **** 0.06
14688 H 129.68282810406578 3.1366836584074917 19.442598160655677 H 0.0 **** 0.06
14689 H 130.36094077338046 3.1543837904519023 17.796556168509426 H 0.0 **** 0.06
14690 H 130.46436604717908 4.608808587123292 18.816900185562588 H 0.0 **** 0.06
14691 C 74.92629321487625 83.22364099173251 107.4037705272523 C 0.0 **** -0.24
14692 H 75.19340343530173 82.69960001228883 108.32150505167095 H 0.0 **** 0.06
14693 H 75.69012245741452 83.96780573376004 107.17560335103707 H 0.0 **** 0.06
14694 H 73.96411729632247 83.71825684519635 107.53459903191782 H 0.0 **** 0.06
14695 H 74.85915200283192 82.50768523705331 106.5843177142921 H 0.0 **** 0.06
14696 C 71.23456950635088 66.20970780517371 79.64564689763274 C 0.0 **** -0.24
14697 H 70.89278048015356 66.87410567980932 80.43978746467148 H 0.0 **** 0.06
14698 H 71.39840776970229 65.21203591468404 80.0532536996802 H 0.0 **** 0.06
14699 H 72.1680001865574 66.59127223651686 79.23003613701582 H 0.0 **** 0.06
14700 H 70.47950108511517 66.1634646417321 78.86166433965873 H 0.0 **** 0.06
14701 C 18.674126527006564 107.20515294758864 59.77384250962753 C 0.0 **** -0.24
14702 H 17.729157460982094 107.18206821824762 59.232086136829395 H 0.0 **** 0.06
14703 H 19.496857755550167 107.30340293933743 59.06555461586534 H 0.0 **** 0.06
14704 H 18.79028499857054 106.28159644996448 60.3403776243119 H 0.0 **** 0.06
14705 H 18.680205892923283 108.05354418280484 60.457351661503324 H 0.0 **** 0.06
14706 C 42.109692987099365 128.978281897651 88.80447999632923 C 0.0 **** -0.24
14707 H 42.05476509151872 129.48578114777365 89.7677888415835 H 0.0 **** 0.06
14708 H 41.35247960702091 128.19581047625377 88.76245854888217 H 0.0 **** 0.06
14709 H 43.09820057371097 128.53561310078805 88.68203589988332 H 0.0 **** 0.06
14710 H 41.93264082661807 129.69794801223279 88.00444140086243 H 0.0 **** 0.06
14711 C 19.32381474268984 100.67212138608528 117.82137716808091 C 0.0 **** -0.24
14712 H 18.638184958817142 101.49337536271861 118.02942802681429 H 0.0 **** 0.06
14713 H 19.504879815076094 100.61412620455798 116.74784771030033 H 0.0 **** 0.06
14714 H 18.883837088466493 99.73638730799468 118.16735247340756 H 0.0 **** 0.06
14715 H 20.26631474398946 100.84549349898532 118.34072322483203 H 0.0 **** 0.06
14716 C 7.746433814452502 20.076994942193153 5.8847910635608365 C 0.0 **** -0.24
14717 H 6.827291686828147 20.199610303231395 6.45819818148621 H 0.0 **** 0.06
14718 H 8.51609754889904 20.73608283652362 6.2872763311404505 H 0.0 **** 0.06
14719 H 7.559517946808455 20.331789067724742 4.841077049629007 H 0.0 **** 0.06
14720 H 8.081543612240097 19.042471944356862 5.951940158028734 H 0.0 **** 0.06
14721 C 79.64430889881854 68.03897836193876 59.39612858320788 C 0.0 **** -0.24
14722 H 80.28714212075977 68.87722306620778 59.12761652062797 H 0.0 **** 0.06
14723 H 78.88729774546837 68.37495762870074 60.10615648880044 H 0.0 **** 0.06
14724 H 80.24532631754889 67.25153344463156 59.851417569379365 H 0.0 **** 0.06
14725 H 79.15759359376185 67.65332922464059 58.50016516922119 H 0.0 **** 0.06
14726 C 11.761643076485882 92.78530657180121 29.32993570489267 C 0.0 **** -0.24
14727 H 11.968483291508903 92.83852158512852 30.398919227110056 H 0.0 **** 0.06
14728 H 11.499173508378703 91.76211442623818 29.06126486018576 H 0.0 **** 0.06
14729 H 12.647177973362147 93.09170494519437 28.77300441678556 H 0.0 **** 0.06
14730 H 10.931489550228434 93.44939277014421 29.088191745700968 H 0.0 **** 0.06
14731 C 12.664338623688337 128.10870664580173 94.22951438291487 C 0.0 **** -0.24
14732 H 13.692346158579852 128.3777213346833 94.47260918752959 H 0.0 **** 0.06
14733 H 12.621915916620168 127.7231270735596 93.21165776846367 H 0.0 **** 0.06
14734 H 12.028698767151042 128.99124538619904 94.3115503524117 H 0.0 **** 0.06
14735 H 12.314890331119727 127.34464421542404 94.92368939338756 H 0.0 **** 0.06
14736 C 108.65460072529055 26.299097312930257 15.429089414922942 C 0.0 **** -0.24
14737 H 109.52473599279438 26.9146827520114 15.657152240884102 H 0.0 **** 0.06
14738 H 107.74746818648373 26.836732481541446 15.703261617591608 H 0.0 **** 0.06
14739 H 108.71090080844795 25.368870287282846 15.992896433448777 H 0.0 **** 0.06
14740 H 108.63792436903654 26.07654551945126 14.362095001537625 H 0.0 **** 0.06
14741 C 110.97106212228596 8.369202278411713 57.66536803779172 C 0.0 **** -0.24
14742 H 112.01927480552538 8.46279682133397 57.38100081552366 H 0.0 **** 0.06
14743 H 110.76081287094338 9.03759223131821 58.501061559178595 H 0.0 **** 0.06
14744 H 110.76677114831426 7.33964096450736 57.961950669575316 H 0.0 **** 0.06
14745 H 110.33964032177087 8.635070372823233 56.81758260691282 H 0.0 **** 0.06
14746 C 40.85606751947368 82.78316319665151 64.0093751142901 C 0.0 **** -0.24
14747 H 41.22738195785946 81.76040723683782 63.94885012581989 H 0.0 **** 0.06
14748 H 39.857264780711155 82.78144003255318 64.4458663412201 H 0.0 **** 0.06
14749 H 40.8158644754106 83.21477219181975 63.009796302045004 H 0.0 **** 0.06
14750 H 41.52500115468463 83.3758378590114 64.63363469536307 H 0.0 **** 0.06
14751 C 36.48395937761339 69.07376039151742 3.1719023034117413 C 0.0 **** -0.24
14752 H 35.76539411786797 69.81165330360588 2.812762243550651 H 0.0 **** 0.06
14753 H 36.78723874179976 69.3285872465635 4.187575672914079 H 0.0 **** 0.06
14754 H 37.35868418468311 69.07131540169686 2.5213210090872735 H 0.0 **** 0.06
14755 H 36.02296475263132 68.08604327943519 3.166969436587692 H 0.0 **** 0.06
14756 C 53.33795831049649 23.08730722766382 4.776760383105909 C 0.0 **** -0.24
14757 H 52.2906055952396 22.78560086276122 4.7685126248833996 H 0.0 **** 0.06
14758 H 53.827997806548765 22.7198585113253 3.874638300458116 H 0.0 **** 0.06
14759 H 53.83001219218956 22.668676337513915 5.654551139968561 H 0.0 **** 0.06
14760 H 53.40194910736271 24.175375398252392 4.808781542260078 H 0.0 **** 0.06
14761 C 91.07585716117654 46.15305155062529 92.03480754136943 C 0.0 **** -0.24
14762 H 91.05876205031933 46.96526880919046 91.3083178074539 H 0.0 **** 0.06
14763 H 91.1789776021443 46.56596600709824 93.03876189756092 H 0.0 **** 0.06
14764 H 91.91850851382867 45.49456487132534 91.82392733222093 H 0.0 **** 0.06
14765 H 90.1471804784137 45.586406514887216 91.96822312824176 H 0.0 **** 0.06
14766 C 62.53575242468759 100.9834434930051 68.83898660010496 C 0.0 **** -0.24
14767 H 62.81443343429504 100.61764603625338 67.85157356949406 H 0.0 **** 0.06
14768 H 61.48661757034796 101.27986506974918 68.83421143556117 H 0.0 **** 0.06
14769 H 63.15572001311244 101.84114599317326 69.09743970596293 H 0.0 **** 0.06
14770 H 62.686025295604566 100.19260998327562 69.57435584817807 H 0.0 **** 0.06
14771 C 46.95023257263149 32.24292755429862 33.87059564775677 C 0.0 **** -0.24
14772 H 46.81262278679591 31.973203123003486 34.91763563783837 H 0.0 **** 0.06
14773 H 46.29565782150543 31.631268459194416 33.24941649796716 H 0.0 **** 0.06
14774 H 47.98774423291147 32.07072844167888 33.58437285922321 H 0.0 **** 0.06
14775 H 46.70484318558893 33.2948358632177 33.731396810972 H 0.0 **** 0.06
14776 C 53.655708478895946 119.5165439971734 91.10555745858926 C 0.0 **** -0.24
14777 H 53.20237462978028 118.53174056318788 91.22004373337055 H 0.0 **** 0.06
14778 H 54.65468496180861 119.40980988996165 90.68262094650507 H 0.0 **** 0.06
14779 H 53.72254552451224 120.00009622534004 92.0796855158755 H 0.0 **** 0.06
14780 H 53.04100002924835 120.12257221793121 90.43942922033082 H 0.0 **** 0.06
14781 C 113.42955494153209 13.509457201202245 47.171160333898 C 0.0 **** -0.24
14782 H 114.26049870598136 13.089236984980108 46.604627109085214 H 0.0 **** 0.06
14783 H 113.58153787052039 13.316980044536638 48.23371257377681 H 0.0 **** 0.06
14784 H 112.49847623290322 13.045373946484396 46.84645951960308 H 0.0 **** 0.06
14785 H 113.37867175260963 14.584044759438285 46.99933227890023 H 0.0 **** 0.06
14786 C 117.2491166700063 6.237978021910706 63.098638159405866 C 0.0 **** -0.24
14787 H 117.02636090216552 6.930382197365617 63.90978286514277 H 0.0 **** 0.06
14788 H 116.32216592773474 5.950807639726378 62.601659290982795 H 0.0 **** 0.06
14789 H 117.73502011340204 5.34900532464512 63.50329970940612 H 0.0 **** 0.06
14790 H 117.913416643636 6.720252311632251 62.38171033105216 H 0.0 **** 0.06
14791 C 19.677755484826207 51.01930690770362 129.8676503869167 C 0.0 **** -0.24
14792 H 20.147114136915974 51.92672127994243 129.48795963243143 H 0.0 **** 0.06
14793 H 20.199805957658526 50.68951116590074 130.76585667764294 H 0.0 **** 0.06
14794 H 19.72915272220112 50.23871161033264 129.1085049562681 H 0.0 **** 0.06
14795 H 18.63391736442 51.224220687252455 130.10785208782747 H 0.0 **** 0.06
14796 C 130.6536479168727 94.36158439771401 66.16755070833868 C 0.0 **** -0.24
14797 H 131.37939746558365 95.1320909220239 65.9074454313526 H 0.0 **** 0.06
14798 H 130.73488380937596 93.53316848351596 65.46294064441622 H 0.0 **** 0.06
14799 H 129.64805018532488 94.78007119019676 66.123341114084 H 0.0 **** 0.06
14800 H 130.85316249325004 94.00115558803662 67.17688043479328 H 0.0 **** 0.06
14801 C 113.90891590237256 57.906389337761425 128.75741748885685 C 0.0 **** -0.24
14802 H 114.33028493036754 57.83056841791864 127.75448436045554 H 0.0 **** 0.06
14803 H 112.82717873132763 58.02582849312216 128.68868970047401 H 0.0 **** 0.06
14804 H 114.33833431889543 58.76825811308237 129.26760713424608 H 0.0 **** 0.06
14805 H 114.14004497671128 57.000119974641905 129.31680164764876 H 0.0 **** 0.06
14806 C 17.603101928430533 116.96420963600468 71.28495450092132 C 0.0 **** -0.24
14807 H 18.24646902848076 117.82920735350116 71.44637072769038 H 0.0 **** 0.06
14808 H 18.115458498350165 116.06320190146451 71.62313094885812 H 0.0 **** 0.06
14809 H 17.37319950650658 116.87526396402617 70.22346451919321 H 0.0 **** 0.06
14810 H 16.677950383529208 117.09013304257017 71.84812270853084 H 0.0 **** 0.06
14811 C 22.896256932218222 2.8916100772545903 54.64679702491293 C 0.0 **** -0.24
14812 H 23.514314132254327 2.133375385064305 55.12701560676338 H 0.0 **** 0.06
14813 H 23.279938256531892 3.0920038467165085 53.6461160151119 H 0.0 **** 0.06
14814 H 22.92380166487507 3.8077800432466447 55.23720229627229 H 0.0 **** 0.06
14815 H 21.868994913301606 2.5339673006891665 54.57871000536345 H 0.0 **** 0.06
14816 C 117.53677843548127 22.30648848868421 105.72563065630729 C 0.0 **** -0.24
14817 H 116.5459293797092 21.954691557116575 105.43911798473685 H 0.0 **** 0.06
14818 H 117.47708951845294 22.81617658271051 106.68785038780867 H 0.0 **** 0.06
14819 H 117.9090777511323 22.9983981085731 104.96975844494587 H 0.0 **** 0.06
14820 H 118.21385647997984 21.455983576474182 105.80619240742271 H 0.0 **** 0.06
14821 C 66.11909198842957 101.25313209511563 124.41258653482853 C 0.0 **** -0.24
14822 H 65.55708633893263 100.32775223900575 124.53808646213844 H 0.0 **** 0.06
14823 H 66.80917460805051 101.14764706547109 123.57541070982217 H 0.0 **** 0.06
14824 H 66.68069542908665 101.46270157741097 125.3231653056265 H 0.0 **** 0.06
14825 H 65.4281648715332 102.07329371936504 124.21408420687288 H 0.0 **** 0.06
14826 C 8.57610964507677 81.27442503577882 96.92790755360089 C 0.0 **** -0.24
14827 H 9.649997947229679 81.09438317082878 96.88528976990038 H 0.0 **** 0.06
14828 H 8.183562151339686 81.37363843022948 95.91535943225267 H 0.0 **** 0.06
14829 H 8.383611758483937 82.19242955908219 97.48370046608598 H 0.0 **** 0.06
14830 H 8.086466697607364 80.43876848023166 97.42705415071659 H 0.0 **** 0.06
14831 C 80.31045397771925 89.17930006787496 60.513604714837385 C 0.0 **** -0.24
14832 H 79.90678812874944 89.12869800273192 59.50273096298358 H 0.0 **** 0.06
14833 H 81.40019273828699 89.17081314701025 60.470745056114595 H 0.0 **** 0.06
14834 H 79.96225350735045 88.31875183650324 61.086242238036704 H 0.0 **** 0.06
14835 H 79.97196378617201 90.09603683834648 60.9951548002131 H 0.0 **** 0.06
14836 C 52.154545652247606 8.918234623376918 49.67219675291915 C 0.0 **** -0.24
14837 H 51.72035685541573 7.9408791257295945 49.46209968635556 H 0.0 **** 0.06
14838 H 51.57963909360046 9.689231498417854 49.15759221491771 H 0.0 **** 0.06
14839 H 53.186606384156875 8.94041852124164 49.32256984097333 H 0.0 **** 0.06
14840 H 52.129291399147675 9.10269956273251 50.745702375290875 H 0.0 **** 0.06
14841 C 77.30204505571203 43.7500738133279 30.22828647932848 C 0.0 **** -0.24
14842 H 77.64726615223853 43.950955746356954 31.24282546493636 H 0.0 **** 0.06
14843 H 76.32038709346276 43.27849929921308 30.265563208095536 H 0.0 **** 0.06
14844 H 78.00707287691714 43.08437006789677 29.73030980305188 H 0.0 **** 0.06
14845 H 77.23552618322825 44.686841573505376 29.67520162212942 H 0.0 **** 0.06
14846 C 64.59949866241934 130.15109507986253 90.88189764313002 C 0.0 **** -0.24
14847 H 63.97389692446146 130.0978131323931 91.77226493018371 H 0.0 **** 0.06
14848 H 65.63997807247509 129.97648294400435 91.15750737043395 H 0.0 **** 0.06
14849 H 64.50360528325243 131.13774584609106 90.42896036314698 H 0.0 **** 0.06
14850 H 64.28034082785044 129.39228365958448 90.16787457612163 H 0.0 **** 0.06
14851 C 3.303801615906764 118.6934348530749 22.340833028260647 C 0.0 **** -0.24
14852 H 3.6838675601360933 119.5291624148957 21.753823015742256 H 0.0 **** 0.06
14853 H 4.098049664446023 118.30914548925048 22.981507860425637 H 0.0 **** 0.06
14854 H 2.9630312270377317 117.90358309727692 21.670437406761806 H 0.0 **** 0.06
14855 H 2.4705555637639804 119.03216264942108 22.956217416733722 H 0.0 **** 0.06
14856 C 27.33545535650302 14.249839847814616 49.96956782421228 C 0.0 **** -0.24
14857 H 27.28380674414109 13.165704505616883 49.86722295597656 H 0.0 **** 0.06
14858 H 27.99448212349205 14.655906723979584 49.20297222451535 H 0.0 **** 0.06
14859 H 27.724727333126168 14.501900174563989 50.95576474385494 H 0.0 **** 0.06
14860 H 26.337108576007267 14.673239303587717 49.854389096008944 H 0.0 **** 0.06
14861 C 125.4375414911868 77.68143683529314 52.828909216046924 C 0.0 **** -0.24
14862 H 125.06730301873536 77.5776498503524 53.849159793935684 H 0.0 **** 0.06
14863 H 125.30872142671552 78.71276059978322 52.49904681220238 H 0.0 **** 0.06
14864 H 124.87885278419655 77.01671071815016 52.17017286686894 H 0.0 **** 0.06
14865 H 126.49474200657049 77.41881221925857 52.79807380444143 H 0.0 **** 0.06
14866 C 31.03478879132743 117.882752062096 48.48600117052837 C 0.0 **** -0.24
14867 H 30.102340790511647 117.98009683419511 49.042429257228775 H 0.0 **** 0.06
14868 H 31.178580710445118 118.76626864517154 47.86244290302034 H 0.0 **** 0.06
14869 H 30.989951273158795 116.99554028336314 47.85473474411475 H 0.0 **** 0.06
14870 H 31.865959079079573 117.79052911204764 49.18364451448457 H 0.0 **** 0.06
14871 C 11.635063959182844 49.53971512390754 76.4408148966815 C 0.0 **** -0.24
14872 H 12.480621092146237 49.117336510042406 75.89726825574388 H 0.0 **** 0.06
14873 H 10.974377521755798 48.73548782514217 76.76596163841668 H 0.0 **** 0.06
14874 H 11.086808865268893 50.21986007737539 75.78823331820371 H 0.0 **** 0.06
14875 H 11.999552884362629 50.08562541907284 77.31058107293694 H 0.0 **** 0.06
14876 C 19.76469078546873 121.41721034194316 95.02408782364658 C 0.0 **** -0.24
14877 H 18.68911068153625 121.24219228976531 95.01021092298568 H 0.0 **** 0.06
14878 H 19.95811345706261 122.48641473746318 95.11578925040965 H 0.0 **** 0.06
14879 H 20.205077962766723 121.04605253238134 94.09836080349068 H 0.0 **** 0.06
14880 H 20.207130749658774 120.8934442364422 95.87190352161132 H 0.0 **** 0.06
14881 C 40.02215690478732 87.51597426033112 41.56687021400896 C 0.0 **** -0.24
14882 H 40.94113293512609 87.77671561682826 42.09084293416271 H 0.0 **** 0.06
14883 H 39.89258873666597 86.43336456979868 41.57804452402638 H 0.0 **** 0.06
14884 H 40.0810157941454 87.86497387426803 40.53570078237888 H 0.0 **** 0.06
14885 H 39.17389015321166 87.98884298042964 42.062892615467774 H 0.0 **** 0.06
14886 C 14.22207377869448 64.27812036133423 44.801141424566026 C 0.0 **** -0.24
14887 H 13.526313888783132 64.69426300538782 44.072603202729056 H 0.0 **** 0.06
14888 H 14.913009760142941 63.60192228260854 44.297797514989384 H 0.0 **** 0.06
14889 H 13.666568417867172 63.73078834189266 45.56268323192063 H 0.0 **** 0.06
14890 H 14.7824833308939 65.08715467700023 45.27095111736912 H 0.0 **** 0.06
14891 C 80.71247118296772 60.180341024149314 26.57726159217708 C 0.0 **** -0.24
14892 H 80.49147882900613 60.850089984153 25.745993767237792 H 0.0 **** 0.06
14893 H 79.79949785806136 59.987755960420344 27.140340757615064 H 0.0 **** 0.06
14894 H 81.45257031539965 60.64267098418948 27.229923615066042 H 0.0 **** 0.06
14895 H 81.10604946693077 59.24015578252079 26.19068129479882 H 0.0 **** 0.06
14896 C 48.32779531226762 42.35766699630999 34.11678592950952 C 0.0 **** -0.24
14897 H 48.02879694271935 41.31759188364912 33.98955322038077 H 0.0 **** 0.06
14898 H 49.2832231232686 42.399274866609076 34.6410101415339 H 0.0 **** 0.06
14899 H 47.57089362521025 42.883878449219374 34.69815396697243 H 0.0 **** 0.06
14900 H 48.4280503567496 42.829517009354696 33.13931420958819 H 0.0 **** 0.06
14901 C 65.53600355907608 0.7379959610802302 18.861118286998874 C 0.0 **** -0.24
14902 H 64.74644836625819 0.13836501368382415 19.315004663161375 H 0.0 **** 0.06
14903 H 65.63467984241885 1.6785927488777475 19.402740966941536 H 0.0 **** 0.06
14904 H 65.28487126295349 0.9418142553443545 17.820648157093615 H 0.0 **** 0.06
14905 H 66.47813562318592 0.19147106150302307 18.907477720726803 H 0.0 **** 0.06
14906 C 32.26594339694438 107.39046033661921 93.28795364109075 C 0.0 **** -0.24
14907 H 32.94159381360032 106.70642731588349 92.7736124526095 H 0.0 **** 0.06
14908 H 32.1852452864363 108.31615296611683 92.71772520704576 H 0.0 **** 0.06
14909 H 32.65688690361125 107.60770832759762 94.28167237470734 H 0.0 **** 0.06
14910 H 31.281549058541117 106.93039724332313 93.37627254091527 H 0.0 **** 0.06
14911 C 68.75248433156844 101.93104429173893 75.3261888101782 C 0.0 **** -0.24
14912 H 67.70802741346657 102.23923022842273 75.37494998701146 H 0.0 **** 0.06
14913 H 69.3857561841353 102.73141324901522 75.71101455361946 H 0.0 **** 0.06
14914 H 69.02087917387561 101.72115716446734 74.29075408104794 H 0.0 **** 0.06
14915 H 68.89485103558897 101.03362487459316 75.92854883656408 H 0.0 **** 0.06
14916 C 86.65630178098708 73.48250134844508 57.343023916020286 C 0.0 **** -0.24
14917 H 87.23438589798394 72.60934488835173 57.64798309752564 H 0.0 **** 0.06
14918 H 86.08469732100332 73.8539624825518 58.193347629655534 H 0.0 **** 0.06
14919 H 85.97445693398394 73.20331476350398 56.53964422073909 H 0.0 **** 0.06
14920 H 87.33389198218129 74.26137904769422 56.992137092163716 H 0.0 **** 0.06
14921 C 72.69553277121241 73.07227948343316 14.036301520282393 C 0.0 **** -0.24
14922 H 71.69524025420225 73.46485401572116 13.85372939002724 H 0.0 **** 0.06
14923 H 73.43507015665176 73.83282573321597 13.788522887373915 H 0.0 **** 0.06
14924 H 72.85777703004862 72.19069597855528 13.416404935148876 H 0.0 **** 0.06
14925 H 72.79132422956388 72.79978630752714 15.0873804613924 H 0.0 **** 0.06
14926 C 15.05925221802346 103.5232190434059 22.486025277896857 C 0.0 **** -0.24
14927 H 16.11895483661374 103.69473106816221 22.670758507739848 H 0.0 **** 0.06
14928 H 14.879854313813155 103.48113682187054 21.411697138968748 H 0.0 **** 0.06
14929 H 14.478812907831298 104.33694822530865 22.920595738176274 H 0.0 **** 0.06
14930 H 14.759271977831418 102.57974464250728 22.94242356711497 H 0.0 **** 0.06
14931 C 68.33181433805706 2.187659211159197 39.00909999230163 C 0.0 **** -0.24
14932 H 69.14248667856825 1.895383324036299 38.34130387240559 H 0.0 **** 0.06
14933 H 67.76405849980982 3.001234066044095 38.55635083823438 H 0.0 **** 0.06
14934 H 68.74671657068882 2.5188463568529684 39.96084242373932 H 0.0 **** 0.06
14935 H 67.67376135882392 1.3348225944354333 39.17655287595855 H 0.0 **** 0.06
14936 C 116.15943396196508 89.69306888875394 98.82102890305708 C 0.0 **** -0.24
14937 H 116.37254849156662 90.7445827981353 99.01179874127052 H 0.0 **** 0.06
14938 H 117.01760108131589 89.23105545985959 98.33244801384092 H 0.0 **** 0.06
14939 H 115.28506779036402 89.61189636385149 98.17352645876156 H 0.0 **** 0.06
14940 H 115.96055786234916 89.18487921405392 99.76386502106783 H 0.0 **** 0.06
14941 C 20.57596713838889 118.29606335722502 69.91312338344139 C 0.0 **** -0.24
14942 H 21.48315397854836 118.85096427035836 69.67225510187939 H 0.0 **** 0.06
14943 H 20.76773257785031 117.63609635582992 70.75883433433198 H 0.0 **** 0.06
14944 H 20.272389095612027 117.70348254381435 69.05043004838868 H 0.0 **** 0.06
14945 H 19.780676226742166 118.99615555643004 70.17109200078352 H 0.0 **** 0.06
14946 C 129.03345872135827 29.282152015236818 19.16045252858487 C 0.0 **** -0.24
14947 H 129.65381880465677 28.388384128484056 19.087262003953256 H 0.0 **** 0.06
14948 H 129.67131580273013 30.158040557819824 19.284747146651284 H 0.0 **** 0.06
14949 H 128.36794231953849 29.192200401479738 20.019377514993806 H 0.0 **** 0.06
14950 H 128.44156280861154 29.389299083919624 18.251796285096972 H 0.0 **** 0.06
14951 C 94.09383461588735 130.34563537257984 66.41659446423643 C 0.0 **** -0.24
14952 H 93.28696039654366 130.66972664743994 65.75941693754297 H 0.0 **** 0.06
14953 H 93.67817144831986 130.0325974806585 67.37449419401761 H 0.0 **** 0.06
14954 H 94.78873835808852 131.17073959338106 66.57332127074112 H 0.0 **** 0.06
14955 H 94.62171677297627 129.5091978520451 65.95778163644349 H 0.0 **** 0.06
14956 C 77.94699432734829 130.76907666719484 34.38140662678239 C 0.0 **** -0.24
14957 H 78.23398112363589 130.88460645768666 35.42662379114216 H 0.0 **** 0.06
14958 H 77.34167460364563 131.62357753583478 34.07539210720995 H 0.0 **** 0.06
14959 H 77.36899465876593 129.85259449658528 34.26343512742477 H 0.0 **** 0.06
14960 H 78.84160571886872 130.71714846416413 33.762022812837984 H 0.0 **** 0.06
14961 C 121.8792543125772 115.094605147658 41.831872448686816 C 0.0 **** -0.24
14962 H 120.99305566782631 114.70108192900892 42.32869017022518 H 0.0 **** 0.06
14963 H 122.22953970731263 115.98021215009234 42.360958248541976 H 0.0 **** 0.06
14964 H 121.63084295483876 115.35976020803162 40.803573302348184 H 0.0 **** 0.06
14965 H 122.6626575022074 114.3360512932079 41.83173385972643 H 0.0 **** 0.06
14966 C 26.47955557187933 68.0306478026883 57.803485964235364 C 0.0 **** -0.24
14967 H 26.42332672258027 67.27472507106322 58.586607663864584 H 0.0 **** 0.06
14968 H 26.695228182608474 67.54999505606202 56.848954265608285 H 0.0 **** 0.06
14969 H 27.271420378807846 68.74099621785155 58.04071732021353 H 0.0 **** 0.06
14970 H 25.527660119226425 68.55706021372293 57.73893791980964 H 0.0 **** 0.06
14971 C 27.843794881570638 15.262768003867706 106.64527712879723 C 0.0 **** -0.24
14972 H 27.76625498557062 16.110344545437698 105.96444452764506 H 0.0 **** 0.06
14973 H 28.615634927114876 15.462444199814485 107.38881182875625 H 0.0 **** 0.06
14974 H 28.104030097534903 14.366874289107415 106.08206533624391 H 0.0 **** 0.06
14975 H 26.887013805079114 15.112089912105517 107.14648928311684 H 0.0 **** 0.06
14976 C 128.73277862221062 78.8826112897046 50.63631469774654 C 0.0 **** -0.24
14977 H 128.7795248970471 78.0467958152756 51.334673322756345 H 0.0 **** 0.06
14978 H 129.4487700916223 79.64777604451606 50.93683857700721 H 0.0 **** 0.06
14979 H 127.72707383028796 79.30398326323059 50.64111598787392 H 0.0 **** 0.06
14980 H 128.97482949562584 78.53213718409785 49.63294649547893 H 0.0 **** 0.06
14981 C 32.11928455838629 32.93169852342746 124.14327093042405 C 0.0 **** -0.24
14982 H 32.05411283158901 32.31909220905874 123.24355838165684 H 0.0 **** 0.06
14983 H 33.071199736065296 32.744457459919545 124.64141028620679 H 0.0 **** 0.06
14984 H 31.300595175035326 32.67825917411716 124.81584255384263 H 0.0 **** 0.06
14985 H 32.05315232500366 33.98527958585731 123.87078244765311 H 0.0 **** 0.06
14986 C 114.65243003210423 129.68696536006914 32.83360790914361 C 0.0 **** -0.24
14987 H 113.78801847309268 129.07074059008448 32.583625442734515 H 0.0 **** 0.06
14988 H 114.75761914721977 129.74172140179255 33.916573479727134 H 0.0 **** 0.06
14989 H 114.5110803468774 130.69031831390376 32.43068156477703 H 0.0 **** 0.06
14990 H 115.550481872537 129.24417942327003 32.40186721902998 H 0.0 **** 0.06
14991 C 16.957525845475658 128.30622026652154 16.874933116598186 C 0.0 **** -0.24
14992 H 16.284071991609977 129.01381244145594 16.39124344872019 H 0.0 **** 0.06
14993 H 17.82556324846891 128.13743093268286 16.237580229452306 H 0.0 **** 0.06
14994 H 16.436794854514943 127.36286821497245 17.037913438937636 H 0.0 **** 0.06
14995 H 17.28333797766149 128.7124184771645 17.833405877798157 H 0.0 **** 0.06
14996 C 70.22592187797981 46.57158944835936 99.11499880579072 C 0.0 **** -0.24
14997 H 69.92349583890336 47.00593889631381 100.06721067629107 H 0.0 **** 0.06
14998 H 70.31455147993422 45.48971496039752 99.22113521731362 H 0.0 **** 0.06
14999 H 71.1877835188144 46.98747645317292 98.81455468490029 H 0.0 **** 0.06
15000 H 69.47814238559684 46.80285283999865 98.3562125634866 H 0.0 **** 0.06
15001 C 119.40822039617342 110.33309718755211 35.40589788906236 C 0.0 **** -0.24
15002 H 120.45956267970152 110.50436208829174 35.63991558029397 H 0.0 **** 0.06
15003 H 119.32148975488582 109.93821932566809 34.393987961696304 H 0.0 **** 0.06
15004 H 118.86304632202503 111.27496317883319 35.47740472649773 H 0.0 **** 0.06
15005 H 118.99019997872628 109.61735293900117 36.1131188729147 H 0.0 **** 0.06
15006 C 78.3667189927436 40.756364878380424 45.06297757872552 C 0.0 **** -0.24
15007 H 78.31731667204913 40.99635203418799 46.12488624806646 H 0.0 **** 0.06
15008 H 77.85690414314624 39.80912254877879 44.88028276464696 H 0.0 **** 0.06
15009 H 79.40986829222994 40.67122774244871 44.75784367398166 H 0.0 **** 0.06
15010 H 77.88275803268486 41.54599603711051 44.48828471585249 H 0.0 **** 0.06
15011 C 1.8801166312581756 43.91524577663775 30.590074520280524 C 0.0 **** -0.24
15012 H 1.294942555707081 44.57345126495714 29.947665522766528 H 0.0 **** 0.06
15013 H 1.777227154204752 44.235104581065386 31.62678351788719 H 0.0 **** 0.06
15014 H 2.9284736578095476 43.9612308365993 30.29759321998654 H 0.0 **** 0.06
15015 H 1.5182580548291469 42.89220425086033 30.487016861708042 H 0.0 **** 0.06
15016 C 6.0755855332680255 13.370343900126404 28.73697531350895 C 0.0 **** -0.24
15017 H 6.1648127840342966 12.63403346534217 27.93890210176623 H 0.0 **** 0.06
15018 H 6.207548911014811 14.371132553091318 28.3244765048467 H 0.0 **** 0.06
15019 H 6.8408504361370035 13.184120921012234 29.490936942070846 H 0.0 **** 0.06
15020 H 5.089023508673137 13.29314997834463 29.19451434775651 H 0.0 **** 0.06
15021 C 60.98391372089736 31.141804299834035 121.25297037556817 C 0.0 **** -0.24
15022 H 61.73872287060938 30.942558607855375 122.013724459267 H 0.0 **** 0.06
15023 H 60.46981821283525 30.21447360964669 120.99966801506258 H 0.0 **** 0.06
15024 H 61.464985888555546 31.54508997418131 120.36209794765489 H 0.0 **** 0.06
15025 H 60.26443511958962 31.8642722218614 121.6363788133097 H 0.0 **** 0.06
15026 C 57.8536396677941 81.67563625821799 88.10537659063304 C 0.0 **** -0.24
15027 H 57.776410185269754 80.58943938505631 88.05671004734516 H 0.0 **** 0.06
15028 H 58.87110244632396 81.97873649850584 87.85542001265145 H 0.0 **** 0.06
15029 H 57.611328637348365 82.01185481860901 89.11309424269014 H 0.0 **** 0.06
15030 H 57.15718825669582 82.12077440023124 87.3953823016497 H 0.0 **** 0.06
15031 C 115.10405365844215 115.86439578930555 9.71390188107182 C 0.0 **** -0.24
15032 H 114.45253965595347 115.01634185221062 9.505946531644696 H 0.0 **** 0.06
15033 H 116.13679629543051 115.59123317787854 9.493111471406905 H 0.0 **** 0.06
15034 H 115.01748819900482 116.14002709076686 10.764745473702732 H 0.0 **** 0.06
15035 H 114.81055095809685 116.70886366405159 9.090253222820763 H 0.0 **** 0.06
15036 C 62.62689894240734 46.27023281280458 92.13090387238441 C 0.0 **** -0.24
15037 H 62.19506005273499 47.23800720096449 92.38310477823333 H 0.0 **** 0.06
15038 H 62.79837917381289 45.70039042980693 93.044998915339 H 0.0 **** 0.06
15039 H 63.57342619877173 46.417822970586656 91.61122729142193 H 0.0 **** 0.06
15040 H 61.938874997066705 45.72361440325221 91.48544909274435 H 0.0 **** 0.06
15041 C 108.20178753400245 115.11186072624072 74.83567709010748 C 0.0 **** -0.24
15042 H 108.24317402618563 114.44827565006933 75.69951184507278 H 0.0 **** 0.06
15043 H 108.24920685271395 116.14751240572933 75.17130998686879 H 0.0 **** 0.06
15044 H 107.26874483966995 114.94683273042936 74.295818196477 H 0.0 **** 0.06
15045 H 109.04488524268595 114.90293615549221 74.1764500429915 H 0.0 **** 0.06
15046 C 47.149861319879506 50.26044077852494 24.030680302432785 C 0.0 **** -0.24
15047 H 46.11059514478703 50.53665903826935 24.209503605462913 H 0.0 **** 0.06
15048 H 47.23210109757221 49.17445729070519 23.973961504280084 H 0.0 **** 0.06
15049 H 47.77023134416373 50.628921066760824 24.847265107064317 H 0.0 **** 0.06
15050 H 47.48635197100927 50.70000160100706 23.092002101906402 H 0.0 **** 0.06
15051 C 69.10076006827761 104.67745713311314 99.30086114241874 C 0.0 **** -0.24
15052 H 68.52326301238357 105.46738259872437 98.82026110189702 H 0.0 **** 0.06
15053 H 70.13698942209356 104.73018537342404 98.96584477425131 H 0.0 **** 0.06
15054 H 68.68186626431806 103.70713318759671 99.0331655640307 H 0.0 **** 0.06
15055 H 69.0609641019439 104.80528628203497 100.38276847611382 H 0.0 **** 0.06
15056 C 92.30920904236778 67.15205398753062 108.37896885303913 C 0.0 **** -0.24
15057 H 92.00627268764268 67.13135915175113 109.42627292116507 H 0.0 **** 0.06
15058 H 91.48292978065861 66.81003941085285 107.7550448749336 H 0.0 **** 0.06
15059 H 93.16890962965768 66.4966952836914 108.23672828607313 H 0.0 **** 0.06
15060 H 92.57829803036253 68.1708682726472 108.09895264335535 H 0.0 **** 0.06
15061 C 5.525373636340561 41.36880663746274 49.137551272573546 C 0.0 **** -0.24
15062 H 4.493970067055102 41.04008945356347 49.26373820298295 H 0.0 **** 0.06
15063 H 5.7463251803086735 41.47305424038515 48.075095935013564 H 0.0 **** 0.06
15064 H 6.1975936019582605 40.6330249807136 49.578411923632814 H 0.0 **** 0.06
15065 H 5.663727898058198 42.32996109633284 49.633370506708445 H 0.0 **** 0.06
15066 C 129.6812449399265 50.701653919324414 54.35469849848093 C 0.0 **** -0.24
15067 H 128.64666680401922 50.37323508430988 54.455770934331824 H 0.0 **** 0.06
15068 H 130.18895657936451 50.07822972687248 53.619117365048695 H 0.0 **** 0.06
15069 H 130.1858321369882 50.61199838801056 55.3172576787118 H 0.0 **** 0.06
15070 H 129.70179837112536 51.74158920795449 54.02853959424827 H 0.0 **** 0.06
15071 C 82.16783051239366 71.11085341864136 60.21238788057144 C 0.0 **** -0.24
15072 H 81.69853946468243 72.06772411671896 60.43963183377895 H 0.0 **** 0.06
15073 H 83.23197056633097 71.16362963248382 60.44344006592911 H 0.0 **** 0.06
15074 H 82.03669971129239 70.88412405284545 59.15343789016191 H 0.0 **** 0.06
15075 H 81.70323256738538 70.32655553614704 60.811219353493016 H 0.0 **** 0.06
15076 C 50.93639142669241 62.967356908575184 79.37567184593175 C 0.0 **** -0.24
15077 H 51.0808945556023 61.99376636989878 79.84507874227492 H 0.0 **** 0.06
15078 H 51.46567156864518 62.993517692577896 78.42357911431061 H 0.0 **** 0.06
15079 H 51.326018921695066 63.74686896537928 80.03030443901801 H 0.0 **** 0.06
15080 H 49.87219601985615 63.13382565239306 79.20623215298994 H 0.0 **** 0.06
15081 C 22.253191812604534 67.36551750585974 65.83563557522017 C 0.0 **** -0.24
15082 H 21.573765160330147 66.58322444089305 65.49608661150796 H 0.0 **** 0.06
15083 H 21.707786661572058 68.30500855731935 65.9256536918135 H 0.0 **** 0.06
15084 H 23.061971228721625 67.48250434894457 65.11484964185362 H 0.0 **** 0.06
15085 H 22.667110256541385 67.09055426917134 66.80503545644234 H 0.0 **** 0.06
15086 C 37.098285071150286 33.530333283075 49.726849487114535 C 0.0 **** -0.24
15087 H 37.98338244441908 34.11812417751855 49.969454009559826 H 0.0 **** 0.06
15088 H 36.24192478577038 34.195469251872595 49.60734725842991 H 0.0 **** 0.06
15089 H 36.90040897490596 32.822550828572446 50.53148635331989 H 0.0 **** 0.06
15090 H 37.26740239323817 32.98598204563785 48.79793963466504 H 0.0 **** 0.06
15091 C 116.31339605033192 110.7587021507691 5.415638920003204 C 0.0 **** -0.24
15092 H 116.01801231506728 109.71013148886372 5.3662066761162635 H 0.0 **** 0.06
15093 H 117.2717289250155 110.88964990889544 4.913501257007937 H 0.0 **** 0.06
15094 H 116.40504082487637 111.06026875592383 6.4597109298464375 H 0.0 **** 0.06
15095 H 115.55868455338019 111.3725628071421 4.925177854250819 H 0.0 **** 0.06
15096 C 3.2386244501831243 89.33213236448228 97.67443673903975 C 0.0 **** -0.24
15097 H 2.2927697743020303 89.15394711907294 98.18552126422514 H 0.0 **** 0.06
15098 H 3.3005721283366256 90.38030288072207 97.3810486851402 H 0.0 **** 0.06
15099 H 3.296650818505668 88.70231242676095 96.78681393302392 H 0.0 **** 0.06
15100 H 4.064356526548522 89.09294793505802 98.3444888350717 H 0.0 **** 0.06
15101 C 16.547995032277584 26.685736978160577 109.00458281683584 C 0.0 **** -0.24
15102 H 15.986736076294449 26.723473449974904 109.93794918918675 H 0.0 **** 0.06
15103 H 16.680571593866944 25.64668102444577 108.70236489045348 H 0.0 **** 0.06
15104 H 17.52314158432165 27.15114664740807 109.14651056862786 H 0.0 **** 0.06
15105 H 15.999229414912236 27.221562997155104 108.22958392166151 H 0.0 **** 0.06
15106 C 89.0298525452119 59.27668257426575 11.479375096073387 C 0.0 **** -0.24
15107 H 89.83135410007073 58.587674756522574 11.744233376374645 H 0.0 **** 0.06
15108 H 88.35515504114379 59.39173625929158 12.32904416417276 H 0.0 **** 0.06
15109 H 88.47781387456827 58.88114058962316 10.62701056545453 H 0.0 **** 0.06
15110 H 89.45501029298013 60.24584119723278 11.219421456410917 H 0.0 **** 0.06
15111 C 55.39909491437464 17.366427870370586 33.38029216138102 C 0.0 **** -0.24
15112 H 54.50368408475083 17.359590943566502 32.7584013368629 H 0.0 **** 0.06
15113 H 56.129066370721546 18.05625970401732 32.95800656483027 H 0.0 **** 0.06
15114 H 55.82430014903372 16.36330255365354 33.41600756515129 H 0.0 **** 0.06
15115 H 55.13713914497583 17.685994534117526 34.38969489460135 H 0.0 **** 0.06
15116 C 115.12347559158435 74.04536386277977 110.68020460020526 C 0.0 **** -0.24
15117 H 115.88417784756045 74.29433425374279 111.42001625510342 H 0.0 **** 0.06
15118 H 114.3001255653049 73.52352917364261 111.1671129242214 H 0.0 **** 0.06
15119 H 115.55895757881412 73.40322919690432 109.91395722757422 H 0.0 **** 0.06
15120 H 114.7523233519917 74.96067545303859 110.21829202973966 H 0.0 **** 0.06
15121 C 71.84527853614945 66.88522081085432 103.12392452190623 C 0.0 **** -0.24
15122 H 71.28087733214817 66.1012812271926 103.62835335663424 H 0.0 **** 0.06
15123 H 72.89282821622167 66.59165729710428 103.05356386148807 H 0.0 **** 0.06
15124 H 71.76536381787793 67.81273983686515 103.69182383036457 H 0.0 **** 0.06
15125 H 71.44119565856874 67.037007514982 102.12297182512336 H 0.0 **** 0.06
15126 C 42.956815048619745 29.660567324478052 10.542342319782108 C 0.0 **** -0.24
15127 H 42.01193159997064 29.536825238969243 11.070598490881949 H 0.0 **** 0.06
15128 H 43.78119072537257 29.399647669591843 11.20789268483253 H 0.0 **** 0.06
15129 H 43.0618174248755 30.69721501753577 10.223744644252093 H 0.0 **** 0.06
15130 H 42.973807837662235 29.007561055265683 9.669730991548334 H 0.0 **** 0.06
15131 C 105.25575493730744 8.045846757006302 70.14679586971391 C 0.0 **** -0.24
15132 H 104.22517731570056 8.295255968983668 70.40023285229799 H 0.0 **** 0.06
15133 H 105.28254145452857 7.57188542661828 69.16481537316389 H 0.0 **** 0.06
15134 H 105.65730153007493 7.35908156510294 70.8923710919012 H 0.0 **** 0.06
15135 H 105.85569239532671 8.955551782132375 70.12832242654586 H 0.0 **** 0.06
15136 C 108.4911040112617 42.401878749288755 130.00482127399005 C 0.0 **** -0.24
15137 H 107.6585928051509 42.53445077150576 129.31362359085426 H 0.0 **** 0.06
15138 H 108.91667290010909 41.4063514407201 129.87344378955223 H 0.0 **** 0.06
15139 H 108.13367987993446 42.512377150315075 131.02910962243973 H 0.0 **** 0.06
15140 H 109.25433408026652 43.15308207041443 129.8027374368298 H 0.0 **** 0.06
15141 C 106.08531710097901 14.166946290189344 26.769019024331044 C 0.0 **** -0.24
15142 H 106.34763318032674 13.512942601606653 27.600900593392396 H 0.0 **** 0.06
15143 H 105.13529207327514 14.658889016679154 26.98030161091549 H 0.0 **** 0.06
15144 H 105.9941116585818 13.576447700731023 25.85755183638372 H 0.0 **** 0.06
15145 H 106.86309571955096 14.918726580475209 26.63877222808054 H 0.0 **** 0.06
15146 C 122.02014697506638 55.34339003773263 79.8675335795252 C 0.0 **** -0.24
15147 H 122.59668125583147 54.79087112952797 79.12472026267505 H 0.0 **** 0.06
15148 H 122.51217148459727 56.294343938663815 80.07420744495585 H 0.0 **** 0.06
15149 H 121.9566489532794 54.75937339711976 80.78541102592894 H 0.0 **** 0.06
15150 H 121.01732741102609 55.52755583301476 79.48407136778431 H 0.0 **** 0.06
15151 C 10.155090078129007 116.85802634453653 4.60057936813465 C 0.0 **** -0.24
15152 H 9.157295450911558 116.42096100024244 4.600971091483803 H 0.0 **** 0.06
15153 H 10.275181578583112 117.48838943606864 5.482368426109712 H 0.0 **** 0.06
15154 H 10.28743846878671 117.46038344673856 3.7014518285156157 H 0.0 **** 0.06
15155 H 10.900444814234543 116.06237149509609 4.617526126428913 H 0.0 **** 0.06
15156 C 129.0099819167477 25.391871473244507 40.627504311437626 C 0.0 **** -0.24
15157 H 128.61843651165154 25.295784320519182 39.61525983857578 H 0.0 **** 0.06
15158 H 130.01383145597632 25.816939370646303 40.59073548044744 H 0.0 **** 0.06
15159 H 129.04827460125344 24.409523643268834 41.09716144393329 H 0.0 **** 0.06
15160 H 128.35906450796287 26.047120180821054 41.20745793016408 H 0.0 **** 0.06
15161 C 49.5297854181085 36.01331762570453 16.575100433081502 C 0.0 **** -0.24
15162 H 50.2788370528456 36.26292326425005 15.824336766399654 H 0.0 **** 0.06
15163 H 49.84069392471824 35.11793227246392 17.11398026824429 H 0.0 **** 0.06
15164 H 48.57231449261363 35.83013813807082 16.086842094384536 H 0.0 **** 0.06
15165 H 49.42713702507416 36.842727793973324 17.27612086766277 H 0.0 **** 0.06
15166 C 20.066019738895335 23.41997423616408 59.40792304617946 C 0.0 **** -0.24
15167 H 21.04706214617812 22.964857223312265 59.27412942020149 H 0.0 **** 0.06
15168 H 20.186209468480698 24.46711055392825 59.68473598035618 H 0.0 **** 0.06
15169 H 19.526650734483113 22.895332287070232 60.19589596080641 H 0.0 **** 0.06
15170 H 19.504533225713047 23.351777794024656 58.47584115945139 H 0.0 **** 0.06
15171 C 55.12479186364416 14.29291224690678 75.06537270497645 C 0.0 **** -0.24
15172 H 56.20189384289132 14.291606579836468 75.23507874090471 H 0.0 **** 0.06
15173 H 54.79962389963197 13.288177669215997 74.79362696455328 H 0.0 **** 0.06
15174 H 54.885160987389796 14.984650696530366 74.25795248221704 H 0.0 **** 0.06
15175 H 54.61438193266558 14.606591760313847 75.97584693428392 H 0.0 **** 0.06
15176 C 25.96161586807625 109.78095485784334 13.267338136503497 C 0.0 **** -0.24
15177 H 26.72226823827623 109.2117948009589 13.802034582759475 H 0.0 **** 0.06
15178 H 26.026379660435737 109.56054232391784 12.201716980482388 H 0.0 **** 0.06
15179 H 26.12520177291151 110.84608576924518 13.428608767831548 H 0.0 **** 0.06
15180 H 24.974559988052306 109.50473185506647 13.63787018536027 H 0.0 **** 0.06
15181 C 25.431266481892237 89.39072852790332 69.51675079895395 C 0.0 **** -0.24
15182 H 24.39548464608896 89.70444911357839 69.38418800810854 H 0.0 **** 0.06
15183 H 25.460446357190904 88.48030328291055 70.11433912466993 H 0.0 **** 0.06
15184 H 25.986054987565552 90.17827549020801 70.02544510045783 H 0.0 **** 0.06
15185 H 25.880772380096147 89.20147811307058 68.54196251601621 H 0.0 **** 0.06
15186 C 44.266617326352105 53.265174589094414 96.69418210159569 C 0.0 **** -0.24
15187 H 44.34912349858308 54.29017467823482 97.05548531384838 H 0.0 **** 0.06
15188 H 43.25962796854665 53.09327358508838 96.31492505262892 H 0.0 **** 0.06
15189 H 44.47015233782068 52.57433246756406 97.51221579209098 H 0.0 **** 0.06
15190 H 44.988970383130805 53.10295853013287 95.89394494751613 H 0.0 **** 0.06
15191 C 98.95858340637335 111.59325946932807 65.43529461369445 C 0.0 **** -0.24
15192 H 99.17964612302086 110.83236778199571 66.18358303801574 H 0.0 **** 0.06
15193 H 99.4671274974744 111.34500884434553 64.50325542393344 H 0.0 **** 0.06
15194 H 99.30447013815018 112.56426477524653 65.79128842945687 H 0.0 **** 0.06
15195 H 97.88292956492506 111.63234420261412 65.26332755791057 H 0.0 **** 0.06
15196 C 28.299609743979346 60.85043108991323 31.21525003639966 C 0.0 **** -0.24
15197 H 29.389666545646385 60.84028163814597 31.217404155967756 H 0.0 **** 0.06
15198 H 27.92616713778166 59.83446905875337 31.3457041347024 H 0.0 **** 0.06
15199 H 27.94349592106886 61.2497481538129 30.264553234696848 H 0.0 **** 0.06
15200 H 27.939762556217396 61.478311759989026 32.03011463517079 H 0.0 **** 0.06
15201 C 10.43744991331208 59.68050304998965 10.115202228548185 C 0.0 **** -0.24
15202 H 10.046294334198294 58.74537693540623 9.713590514402767 H 0.0 **** 0.06
15203 H 10.987645459914361 60.20749575699975 9.336154749320542 H 0.0 **** 0.06
15204 H 11.104443047475442 59.46519486504323 10.949693083327816 H 0.0 **** 0.06
15205 H 9.611035654339148 60.30116393631957 10.4610200820822 H 0.0 **** 0.06
15206 C 8.599088374070277 107.42104229467576 19.801406297192493 C 0.0 **** -0.24
15207 H 8.954726543800291 107.33533730923932 18.773615105605423 H 0.0 **** 0.06
15208 H 7.833176051732437 106.66626102015815 19.98339554527042 H 0.0 **** 0.06
15209 H 8.17672497310383 108.41394683474543 19.95718570758764 H 0.0 **** 0.06
15210 H 9.432020073612932 107.26806391047917 20.48735443308678 H 0.0 **** 0.06
15211 C 88.95479607651752 5.475706826753253 0.7842657661830401 C 0.0 **** -0.24
15212 H 89.0996871663007 4.7030292085528345 1.5396440615191977 H 0.0 **** 0.06
15213 H 88.31708877190815 6.263106083329404 1.1875030899492174 H 0.0 **** 0.06
15214 H 88.48176201622634 5.039578214347671 -0.09496857144850424 H 0.0 **** 0.06
15215 H 89.92050974884049 5.897244170039215 0.5066062603599732 H 0.0 **** 0.06
15216 C 56.08011098388505 38.385456786891496 43.049901059469434 C 0.0 **** -0.24
15217 H 56.32152642449614 37.335224493042205 43.21316518192921 H 0.0 **** 0.06
15218 H 56.81356312376491 38.82522093834572 42.37211417055041 H 0.0 **** 0.06
15219 H 56.10302099204367 38.915924732007966 44.00225099753044 H 0.0 **** 0.06
15220 H 55.08598964286563 38.46622569451216 42.611869630762186 H 0.0 **** 0.06
15221 C 56.001337422460566 72.59616440759346 99.09471621666603 C 0.0 **** -0.24
15222 H 55.316420903199244 71.7811185080481 99.32867564786241 H 0.0 **** 0.06
15223 H 55.68661799690928 73.49780023743561 99.61964854776829 H 0.0 **** 0.06
15224 H 55.99530180526861 72.77884967144176 98.02042663647143 H 0.0 **** 0.06
15225 H 57.00906498102904 72.32451257696587 99.4111747383846 H 0.0 **** 0.06
15226 C 122.33950751639432 75.34516621976582 103.22482928949053 C 0.0 **** -0.24
15227 H 121.47351805973132 74.95725144887473 103.76204890239144 H 0.0 **** 0.06
15228 H 122.20489340678328 75.18656330024089 102.15488881355682 H 0.0 **** 0.06
15229 H 123.23743171095578 74.82454323669754 103.56015661127756 H 0.0 **** 0.06
15230 H 122.44208559718903 76.41145944556149 103.42558024699855 H 0.0 **** 0.06
15231 C 53.598610058278695 5.00923890574493 38.98137263986081 C 0.0 **** -0.24
15232 H 53.598690635705765 5.516732563479042 39.946497865754196 H 0.0 **** 0.06
15233 H 54.60720754136619 5.0205807110962155 38.565902957362766 H 0.0 **** 0.06
15234 H 52.919309255650745 5.522203891695121 38.30124856354715 H 0.0 **** 0.06
15235 H 53.27196905938942 3.977823594611568 39.11393048531838 H 0.0 **** 0.06
15236 C 126.85592172031906 81.84439252898986 3.7533983127137844 C 0.0 **** -0.24
15237 H 127.79718460965128 82.39369427919954 3.7604133488318325 H 0.0 **** 0.06
15238 H 126.71403396259299 81.37832282634048 2.7782653096396928 H 0.0 **** 0.06
15239 H 126.03340632265255 82.53180645423372 3.9526042915418316 H 0.0 **** 0.06
15240 H 126.8801985430812 81.07454012004992 4.525785826492438 H 0.0 **** 0.06
15241 C 112.4191777721542 30.721633333785263 24.693020144041895 C 0.0 **** -0.24
15242 H 113.16106514379885 31.51593533024308 24.60902043719659 H 0.0 **** 0.06
15243 H 112.91764119075543 29.753698811269913 24.656109806086818 H 0.0 **** 0.06
15244 H 111.71144296459664 30.79736085490441 23.86772126837957 H 0.0 **** 0.06
15245 H 111.88635338750376 30.821518900852396 25.63904422383831 H 0.0 **** 0.06
15246 C 40.06734152919148 54.725118077784686 29.222673718254015 C 0.0 **** -0.24
15247 H 40.25884064979516 55.78334683092376 29.401233174258877 H 0.0 **** 0.06
15248 H 41.014088968551846 54.20419125744553 29.07655028947496 H 0.0 **** 0.06
15249 H 39.44981862111848 54.61261182767146 28.33125221271004 H 0.0 **** 0.06
15250 H 39.547533985416294 54.29994152811227 30.081533728613792 H 0.0 **** 0.06
15251 C 108.19754357412832 108.81086780363708 125.44369678853208 C 0.0 **** -0.24
15252 H 107.13853163363976 109.06931772401265 125.4288024331759 H 0.0 **** 0.06
15253 H 108.68779552606898 109.33728380099467 126.26250487354646 H 0.0 **** 0.06
15254 H 108.65520048074674 109.10182190868034 124.4983760420656 H 0.0 **** 0.06
15255 H 108.30622280887997 107.73530567622382 125.58486133774555 H 0.0 **** 0.06
15256 C 108.83942739570165 71.70179791214704 46.34570390948704 C 0.0 **** -0.24
15257 H 109.6385148092287 71.02864750611887 46.6559929644161 H 0.0 **** 0.06
15258 H 108.63815482366255 72.41841052939012 47.14295184125035 H 0.0 **** 0.06
15259 H 107.93799183201168 71.12447319548407 46.13920066542164 H 0.0 **** 0.06
15260 H 109.14296086065951 72.23574117298575 45.44566310225065 H 0.0 **** 0.06
15261 C 66.19797609230774 91.43254007799828 70.72053212425638 C 0.0 **** -0.24
15262 H 66.25137396201305 91.52347425297302 71.8056105251522 H 0.0 **** 0.06
15263 H 65.86932379387866 92.38062258547933 70.29300460219733 H 0.0 **** 0.06
15264 H 65.48746463517958 90.6483060211778 70.456700816753 H 0.0 **** 0.06
15265 H 67.18240270664415 91.17807034046908 70.32857571275309 H 0.0 **** 0.06
15266 C 84.31946658323716 65.26607930193782 96.34385920902608 C 0.0 **** -0.24
15267 H 83.97150062694931 66.2228963703433 95.95626123651658 H 0.0 **** 0.06
15268 H 83.47873242870085 64.7231826021841 96.77743250824325 H 0.0 **** 0.06
15269 H 85.07562144954937 65.43756483361622 97.10958890520496 H 0.0 **** 0.06
15270 H 84.75003745302925 64.6803543336093 95.53213794191748 H 0.0 **** 0.06
15271 C 46.34026387115816 10.64122265053686 71.82968499807573 C 0.0 **** -0.24
15272 H 46.41698995207477 11.55942417978568 71.24668107610248 H 0.0 **** 0.06
15273 H 45.30283929901185 10.304542999694775 71.8411580436998 H 0.0 **** 0.06
15274 H 46.67206167425607 10.83065054196365 72.85064668907894 H 0.0 **** 0.06
15275 H 46.96722199729865 9.871569986823772 71.3795164135951 H 0.0 **** 0.06
15276 C 4.667254511563215 21.850604433325373 40.257046551645544 C 0.0 **** -0.24
15277 H 4.926652509050541 21.283982512395426 39.362567504276285 H 0.0 **** 0.06
15278 H 5.311048395378464 22.72873713293103 40.32918542565267 H 0.0 **** 0.06
15279 H 4.806589213993561 21.224070373271502 41.137362583267134 H 0.0 **** 0.06
15280 H 3.6263525898007174 22.166995637924344 40.19785020363287 H 0.0 **** 0.06
15281 C 36.07270321670693 98.03968212897371 74.79869458339323 C 0.0 **** -0.24
15282 H 35.74898769552378 98.99372012896293 75.2133970810545 H 0.0 **** 0.06
15283 H 35.34603793067713 97.69802027176013 74.0610413775475 H 0.0 **** 0.06
15284 H 36.15260584109237 97.30399938373682 75.59906321363724 H 0.0 **** 0.06
15285 H 37.04522164404857 98.16390143608203 74.32120845360038 H 0.0 **** 0.06
15286 C 118.37524319649764 108.55499448265894 129.92969230582227 C 0.0 **** -0.24
15287 H 119.34771337167238 108.89713692308962 130.28436088846283 H 0.0 **** 0.06
15288 H 118.0162305261807 107.75121271229116 130.57205762950483 H 0.0 **** 0.06
15289 H 118.46963668061436 108.18948542732551 128.906450130075 H 0.0 **** 0.06
15290 H 117.66719717157552 109.38471606865477 129.9547425395817 H 0.0 **** 0.06
15291 C 51.93894126687252 13.920186170429616 119.64228809654531 C 0.0 **** -0.24
15292 H 51.554301716950405 14.613890274321093 118.89517668561336 H 0.0 **** 0.06
15293 H 52.37248210524285 13.052772500405808 119.14394848346524 H 0.0 **** 0.06
15294 H 51.124886504006184 13.597926276409595 120.29181476363385 H 0.0 **** 0.06
15295 H 52.70446287882359 14.417772172753118 120.23933115359046 H 0.0 **** 0.06
15296 C 25.82424629592296 2.888734702376439 35.34889329964 C 0.0 **** -0.24
15297 H 26.54320342408127 3.409185806510834 35.98196422033061 H 0.0 **** 0.06
15298 H 25.38111542650111 3.595308898317512 34.64703618158188 H 0.0 **** 0.06
15299 H 25.04196281762259 2.453552131651776 35.970645782204826 H 0.0 **** 0.06
15300 H 26.33247546646035 2.097940401697514 34.79832733662107 H 0.0 **** 0.06
15301 C 77.55479325322261 94.62643958310309 7.377513203689187 C 0.0 **** -0.24
15302 H 77.18343142228088 93.63770243634087 7.646285774895258 H 0.0 **** 0.06
15303 H 78.09109853821866 95.05470385965788 8.225628139962286 H 0.0 **** 0.06
15304 H 76.71638626866718 95.27017960055252 7.114302443670802 H 0.0 **** 0.06
15305 H 78.2302636548493 94.54212823768131 6.526261891011508 H 0.0 **** 0.06
15306 C 19.219532187025578 94.25367351912664 6.877824579303454 C 0.0 **** -0.24
15307 H 19.07265119184455 94.29404897168675 5.7984324928444515 H 0.0 **** 0.06
15308 H 19.048954472374362 95.24199146397791 7.30475707388074 H 0.0 **** 0.06
15309 H 20.23838764536579 93.93434999738923 7.0943388895613175 H 0.0 **** 0.06
15310 H 18.516042924237226 93.54366656356544 7.313305325728674 H 0.0 **** 0.06
15311 C 123.9472335059331 41.72779687217269 26.062298430833323 C 0.0 **** -0.24
15312 H 124.42670942239101 40.890651204578454 26.56976513288322 H 0.0 **** 0.06
15313 H 124.4944816519936 41.96000949837652 25.148183950472173 H 0.0 **** 0.06
15314 H 123.9471529551609 42.59855657015101 26.717451065638954 H 0.0 **** 0.06
15315 H 122.92017009714945 41.46119927298246 25.813314627649675 H 0.0 **** 0.06
15316 C 80.6061482509894 4.871236586943581 16.697618645637647 C 0.0 **** -0.24
15317 H 80.06036463355213 4.204398535086142 16.029663737327553 H 0.0 **** 0.06
15318 H 81.08295927787185 4.286512062641137 17.48485304186292 H 0.0 **** 0.06
15319 H 79.91273899521372 5.585027098855221 17.143235322480052 H 0.0 **** 0.06
15320 H 81.36715580060314 5.409337011147855 16.13278248230904 H 0.0 **** 0.06
15321 C 100.34386377234782 66.87023037397404 68.47964965144067 C 0.0 **** -0.24
15322 H 100.06704950771247 66.39326402296007 67.53905543827699 H 0.0 **** 0.06
15323 H 101.33742450759853 66.53549245031132 68.77770175159125 H 0.0 **** 0.06
15324 H 99.62242240298207 66.59802714181689 69.24993415075238 H 0.0 **** 0.06
15325 H 100.34732672085143 67.95246446658774 68.35108127289999 H 0.0 **** 0.06
15326 C 69.949217597738 6.673145497127095 13.007383662932305 C 0.0 **** -0.24
15327 H 70.3671731644775 6.703182645298867 12.001319368693899 H 0.0 **** 0.06
15328 H 69.83453674778679 7.690086721999222 13.383600834084643 H 0.0 **** 0.06
15329 H 70.62057803574406 6.116604146996792 13.662260312392107 H 0.0 **** 0.06
15330 H 68.97684246488285 6.181791025494164 12.982128472254406 H 0.0 **** 0.06
15331 C 95.70328699164192 61.980922921486 111.90037176847596 C 0.0 **** -0.24
15332 H 95.06614365117458 62.73663076633338 112.35983285417404 H 0.0 **** 0.06
15333 H 96.52967120717297 61.74561865847353 112.57078394096635 H 0.0 **** 0.06
15334 H 96.09614831864775 62.362667864340494 110.95807922398791 H 0.0 **** 0.06
15335 H 95.12007759311423 61.07912733324565 111.71150664062361 H 0.0 **** 0.06
15336 C 123.74305068457232 28.03061697426199 21.6541356267669 C 0.0 **** -0.24
15337 H 124.37367040459964 28.50997372086809 22.402725189710168 H 0.0 **** 0.06
15338 H 123.98318520149412 28.42924381052069 20.6679821991591 H 0.0 **** 0.06
15339 H 122.6955513674016 28.22866090222223 21.881624658962494 H 0.0 **** 0.06
15340 H 123.91979576479396 26.95458946343686 21.66421045923613 H 0.0 **** 0.06
15341 C 60.85827745804346 43.442589208497935 80.77583576862499 C 0.0 **** -0.24
15342 H 61.07064500459575 42.46705155073087 80.33742178364754 H 0.0 **** 0.06
15343 H 60.25111059342515 43.3140008970193 81.6720466421728 H 0.0 **** 0.06
15344 H 60.31674962538335 44.05497392677461 80.05477957262217 H 0.0 **** 0.06
15345 H 61.795073272869786 43.93381177232956 81.03981017994062 H 0.0 **** 0.06
15346 C 48.401249243354215 16.950651735980387 54.24070043407096 C 0.0 **** -0.24
15347 H 47.90819792207537 17.33617571140752 53.3483708302918 H 0.0 **** 0.06
15348 H 48.19417189339089 15.884998141639159 54.33850051315119 H 0.0 **** 0.06
15349 H 48.025532095004515 17.476483849221353 55.11870767113652 H 0.0 **** 0.06
15350 H 49.47716291661271 17.10713269009868 54.15770045438319 H 0.0 **** 0.06
15351 C 51.2327035835679 111.84792466636839 10.105153236769013 C 0.0 **** -0.24
15352 H 51.86840358074922 111.13042293097061 10.623963647320636 H 0.0 **** 0.06
15353 H 51.201350508656674 112.78024810297228 10.670087334065215 H 0.0 **** 0.06
15354 H 50.225422436189845 111.44248292773682 10.015631756783307 H 0.0 **** 0.06
15355 H 51.63785064323764 112.03865872829442 9.111231275944249 H 0.0 **** 0.06
15356 C 73.04780959325664 60.4403996573397 46.07497637204824 C 0.0 **** -0.24
15357 H 73.64629653211826 61.334469407847166 45.89691964183006 H 0.0 **** 0.06
15358 H 73.06489456425297 60.198975820000015 47.13787623426718 H 0.0 **** 0.06
15359 H 73.46110876842135 59.60760129289727 45.505851469103256 H 0.0 **** 0.06
15360 H 72.02087228564142 60.622962739407825 45.759928906444884 H 0.0 **** 0.06
15361 C 120.79724648876717 52.89456746588482 5.245433421578877 C 0.0 **** -0.24
15362 H 120.97601385965127 52.29255258074036 6.1368305403058265 H 0.0 **** 0.06
15363 H 120.46764078032464 52.24765128886932 4.431449947275372 H 0.0 **** 0.06
15364 H 121.71957386432408 53.39965990468019 4.957856766016203 H 0.0 **** 0.06
15365 H 120.02723602321475 53.635976602943174 5.456551379498531 H 0.0 **** 0.06
15366 C 54.79666525755505 121.75925895148197 116.27445852857896 C 0.0 **** -0.24
15367 H 55.78030441295829 121.29118381059033 116.30641348771886 H 0.0 **** 0.06
15368 H 54.075788957071964 121.12538155104772 116.79227350885944 H 0.0 **** 0.06
15369 H 54.48938864015808 121.8881136340554 115.23658665483275 H 0.0 **** 0.06
15370 H 54.84234735867409 122.73299833871715 116.76303326087573 H 0.0 **** 0.06
15371 C 99.15830479511882 110.25722427793806 130.06227192901468 C 0.0 **** -0.24
15372 H 99.60696986653183 109.32865996754688 129.71061813065785 H 0.0 **** 0.06
15373 H 99.93270603304374 111.01566853914298 130.17413102944832 H 0.0 **** 0.06
15374 H 98.67521174414189 110.08531273863078 131.0248040422575 H 0.0 **** 0.06
15375 H 98.41650613457749 110.59808351733064 129.34007653233925 H 0.0 **** 0.06
15376 C 112.63481055639811 75.17410805855813 31.859344240833288 C 0.0 **** -0.24
15377 H 112.66283965688255 74.08483984559648 31.90162489852345 H 0.0 **** 0.06
15378 H 112.24294097566734 75.56450464501091 32.799352373597856 H 0.0 **** 0.06
15379 H 111.99100564631034 75.48830377022723 31.038557000047803 H 0.0 **** 0.06
15380 H 113.64316580088895 75.5570031966657 31.699367577061267 H 0.0 **** 0.06
15381 C 43.13191060231131 107.2527333789473 79.26361172068104 C 0.0 **** -0.24
15382 H 42.56712223337412 108.13163342668356 79.57228662628013 H 0.0 **** 0.06
15383 H 43.15656191924293 107.19986842148259 78.17477558662027 H 0.0 **** 0.06
15384 H 42.65446532273867 106.35578961300311 79.65978646610928 H 0.0 **** 0.06
15385 H 44.150205959081525 107.32169020294444 79.64677228007504 H 0.0 **** 0.06
15386 C 115.5781643471371 16.296352424827234 27.957182457198073 C 0.0 **** -0.24
15387 H 116.57307116123636 16.082480829100973 27.565939729256584 H 0.0 **** 0.06
15388 H 114.87308184623804 16.38128664807735 27.129355542306683 H 0.0 **** 0.06
15389 H 115.60002732673796 17.23380635509929 28.513159637945172 H 0.0 **** 0.06
15390 H 115.2669681027812 15.488034349359026 28.618102419356163 H 0.0 **** 0.06
15391 C 47.78014069332494 115.24592075533592 65.66978267789955 C 0.0 **** -0.24
15392 H 48.45960351893086 115.34031280463891 66.51707418650761 H 0.0 **** 0.06
15393 H 46.89067801869075 115.84878383541985 65.84963723431139 H 0.0 **** 0.06
15394 H 47.494468414151726 114.20091882241105 65.54767287608576 H 0.0 **** 0.06
15395 H 48.278755283470986 115.59323869030074 64.76514452647979 H 0.0 **** 0.06
15396 C 72.07206877037862 123.52607752396251 115.99424117809684 C 0.0 **** -0.24
15397 H 72.60287884049407 123.60382692555578 115.04452055435611 H 0.0 **** 0.06
15398 H 72.5215198455944 122.73686757658746 116.59735716019088 H 0.0 **** 0.06
15399 H 71.0249693405441 123.29006553654905 115.80759838756119 H 0.0 **** 0.06
15400 H 72.14167048418147 124.47470888694302 116.52763378458297 H 0.0 **** 0.06
15401 C 7.407136824892575 104.33209189452668 78.31772558896205 C 0.0 **** -0.24
15402 H 6.580460126415858 104.97472867245932 78.61968592898563 H 0.0 **** 0.06
15403 H 7.064686823991906 103.29834865090373 78.26859937970471 H 0.0 **** 0.06
15404 H 8.215396181251776 104.41343189014941 79.04509903928925 H 0.0 **** 0.06
15405 H 7.768847615659041 104.64200128642358 77.3380359124883 H 0.0 **** 0.06
15406 C 33.70933351894669 63.4867951458415 66.02266858936406 C 0.0 **** -0.24
15407 H 33.19310146137593 64.36700284788911 66.40577605434817 H 0.0 **** 0.06
15408 H 34.26362842441944 63.01073574684682 66.83133419391814 H 0.0 **** 0.06
15409 H 34.39989420228224 63.786173333312504 65.23449152042616 H 0.0 **** 0.06
15410 H 32.97903599660063 62.784680819230076 65.6195240603574 H 0.0 **** 0.06
15411 C 65.58063313672984 7.495164089224783 71.67799562543306 C 0.0 **** -0.24
15412 H 65.94607324394767 6.885198780139206 72.50454227112274 H 0.0 **** 0.06
15413 H 66.11019528076339 7.224661125474505 70.76509393848326 H 0.0 **** 0.06
15414 H 65.75390962494843 8.548273719015537 71.90108053462743 H 0.0 **** 0.06
15415 H 64.51273185513996 7.322545238366359 71.54424191652791 H 0.0 **** 0.06
15416 C 117.5874633297212 23.495293278003004 13.672919338070326 C 0.0 **** -0.24
15417 H 117.35703786417952 23.873903390914776 14.668711963889983 H 0.0 **** 0.06
15418 H 118.66513758164123 23.365965262852185 13.574132052992177 H 0.0 **** 0.06
15419 H 117.23526120270108 24.205125876524825 12.923711839442163 H 0.0 **** 0.06
15420 H 117.09022035179893 22.535977037954886 13.52618728231922 H 0.0 **** 0.06
15421 C 9.334539252425742 75.76155228597673 86.7720632149198 C 0.0 **** -0.24
15422 H 8.793754888129882 76.60800749925949 86.34766438619988 H 0.0 **** 0.06
15423 H 10.220157881906232 75.55772905289587 86.16900825654241 H 0.0 **** 0.06
15424 H 8.689057797848932 74.88417150472543 86.77686265305829 H 0.0 **** 0.06
15425 H 9.635180941658405 75.99743898262813 87.79279261112754 H 0.0 **** 0.06
15426 C 46.13466562386483 23.879140106508032 95.15384609791829 C 0.0 **** -0.24
15427 H 46.943495835751214 23.3774886776784 95.6845399532051 H 0.0 **** 0.06
15428 H 45.562535362030374 24.488079744722768 95.85474268269633 H 0.0 **** 0.06
15429 H 45.48081177149694 23.134387576216795 94.70059313212957 H 0.0 **** 0.06
15430 H 46.55218105837825 24.517473230789903 94.37517019918393 H 0.0 **** 0.06
15431 C 0.14013577693870616 20.127892962193755 102.35580125766342 C 0.0 **** -0.24
15432 H -0.7655419315418044 20.729947515945767 102.43834671479735 H 0.0 **** 0.06
15433 H 0.6756357668042767 20.4006789054432 101.44625682293338 H 0.0 **** 0.06
15434 H -0.12773559224564224 19.072404235800782 102.31887029755902 H 0.0 **** 0.06
15435 H 0.7772778701171603 20.31069590359518 103.22132337139229 H 0.0 **** 0.06
15436 C 30.33880890101502 78.02674018189224 102.0513397403833 C 0.0 **** -0.24
15437 H 30.750670699152735 77.52285992837692 101.17615570507785 H 0.0 **** 0.06
15438 H 29.89716313752335 78.976136617381 101.74932671031493 H 0.0 **** 0.06
15439 H 31.136023892322896 78.20920724206093 102.77253426867287 H 0.0 **** 0.06
15440 H 29.574111011558372 77.3968229104334 102.5060042853796 H 0.0 **** 0.06
15441 C 117.0156238199847 116.89170523152245 100.69895058029063 C 0.0 **** -0.24
15442 H 117.3062946338795 117.02705288315934 99.65676825058328 H 0.0 **** 0.06
15443 H 117.89174362617096 116.62068816920808 101.28837345611397 H 0.0 **** 0.06
15444 H 116.27162495300118 116.09786030918335 100.76626627991043 H 0.0 **** 0.06
15445 H 116.59184344294857 117.82004776321654 101.08113086527993 H 0.0 **** 0.06
15446 C 2.0858694184953777 27.853081977381116 24.75050022300215 C 0.0 **** -0.24
15447 H 2.6981209153145755 28.197949544334776 25.582513936676406 H 0.0 **** 0.06
15448 H 1.575188044554551 28.702818477620255 24.297530157724395 H 0.0 **** 0.06
15449 H 1.3480129975117165 27.13720064237767 25.11437019146298 H 0.0 **** 0.06
15450 H 2.7215073792194175 27.37219771409871 24.006633832473412 H 0.0 **** 0.06
15451 C 77.03126563687638 94.96638784633629 79.20598595282209 C 0.0 **** -0.24
15452 H 76.53828370871187 93.99681116792117 79.27423794283075 H 0.0 **** 0.06
15453 H 78.10260047792346 94.81931788148886 79.06808537143908 H 0.0 **** 0.06
15454 H 76.85733539144931 95.52878764133582 80.12348375863326 H 0.0 **** 0.06
15455 H 76.62802206289052 95.51988975760375 78.35790238958359 H 0.0 **** 0.06
15456 C 94.8876829799658 15.36908568095495 52.42222954518711 C 0.0 **** -0.24
15457 H 95.88618981016782 14.95892023112226 52.27350549703337 H 0.0 **** 0.06
15458 H 94.9500201936612 16.455177820766213 52.501535904696766 H 0.0 **** 0.06
15459 H 94.46096704640422 14.961309055927767 53.339332200791446 H 0.0 **** 0.06
15460 H 94.25486940036706 15.10140007452733 51.57629288225233 H 0.0 **** 0.06
15461 C 91.65632911727596 75.8290240390956 87.61060872641761 C 0.0 **** -0.24
15462 H 92.35381871340215 76.27680156206571 86.9028410997901 H 0.0 **** 0.06
15463 H 91.50768254400046 74.77925334161097 87.35909111683145 H 0.0 **** 0.06
15464 H 90.70249350651889 76.3540799382441 87.56202492511343 H 0.0 **** 0.06
15465 H 92.06248672904475 75.90688358944027 88.6198165514691 H 0.0 **** 0.06
15466 C 65.98216586953751 122.15265816248825 79.97707492453398 C 0.0 **** -0.24
15467 H 65.0922464650989 122.00745308839905 80.58858318049224 H 0.0 **** 0.06
15468 H 66.42139978176428 121.18447702131809 79.73777116787844 H 0.0 **** 0.06
15469 H 66.7061459739707 122.75484961016235 80.52682558530384 H 0.0 **** 0.06
15470 H 65.70852076483615 122.66603738022764 79.05479478401469 H 0.0 **** 0.06
15471 C 95.89267684557299 53.632645458476134 97.55005650041707 C 0.0 **** -0.24
15472 H 95.3718389968605 53.24040963359158 96.67683520165917 H 0.0 **** 0.06
15473 H 96.2842290287168 54.62442794943587 97.3240236610786 H 0.0 **** 0.06
15474 H 96.7153266698513 52.966770401367796 97.8110510471549 H 0.0 **** 0.06
15475 H 95.19803366009799 53.69780591284962 98.3883025884285 H 0.0 **** 0.06
15476 C 125.11179974839153 55.121951724291065 99.9179436143844 C 0.0 **** -0.24
15477 H 125.94889573814415 54.73827075466163 100.50149113396898 H 0.0 **** 0.06
15478 H 125.30375891880767 54.95934092952734 98.85722268326872 H 0.0 **** 0.06
15479 H 124.99573447447257 56.1883355092381 100.10776159367065 H 0.0 **** 0.06
15480 H 124.19906476519981 54.600342757332 100.20609532916835 H 0.0 **** 0.06
15481 C 50.96436566299556 58.899040555437196 5.5557853132432875 C 0.0 **** -0.24
15482 H 51.071601822872424 59.974558707732996 5.4164779043279765 H 0.0 **** 0.06
15483 H 50.126724466149795 58.536688323152006 4.959042816513545 H 0.0 **** 0.06
15484 H 50.77852970854315 58.68559734616437 6.608922305743043 H 0.0 **** 0.06
15485 H 51.87948861953575 58.39868431656721 5.239859608306009 H 0.0 **** 0.06
15486 C 109.53647217659785 109.32101894802105 54.81449060425855 C 0.0 **** -0.24
15487 H 108.91611169593311 110.15101959205256 55.152958159739356 H 0.0 **** 0.06
15488 H 109.20675841304976 109.00119256380418 53.826300159468545 H 0.0 **** 0.06
15489 H 109.44638626252562 108.49095292707216 55.51562856010143 H 0.0 **** 0.06
15490 H 110.5767385897051 109.64260314136774 54.76484322514467 H 0.0 **** 0.06
15491 C 36.25690029779936 15.022076386683068 27.236852567940744 C 0.0 **** -0.24
15492 H 36.71857186691915 14.228876334653442 27.82453316612962 H 0.0 **** 0.06
15493 H 36.81327782596071 15.157336708184687 26.309317573909887 H 0.0 **** 0.06
15494 H 36.26934454404386 15.951525944480533 27.806327012288378 H 0.0 **** 0.06
15495 H 35.22637861782863 14.75069149928294 27.006240731643466 H 0.0 **** 0.06
15496 C 69.36500626086249 40.228652003833574 78.69697324266185 C 0.0 **** -0.24
15497 H 70.18676269425342 40.91219467386385 78.90674255261847 H 0.0 **** 0.06
15498 H 69.72510020234247 39.20050371445724 78.7484610181659 H 0.0 **** 0.06
15499 H 68.97337198289252 40.427133127515475 77.69902718340867 H 0.0 **** 0.06
15500 H 68.5742246903761 40.37421073316122 79.43249591461728 H 0.0 **** 0.06
15501 C 78.6029874223908 103.83692626190833 61.429760533313754 C 0.0 **** -0.24
15502 H 77.64993552437558 103.54428404127657 60.98875702034405 H 0.0 **** 0.06
15503 H 78.82513374027073 103.1878319484544 62.276993131963025 H 0.0 **** 0.06
15504 H 78.54394217658523 104.87130544394682 61.76784013224716 H 0.0 **** 0.06
15505 H 79.39228163082724 103.74286640154719 60.68289042995576 H 0.0 **** 0.06
15506 C 31.404343345810133 86.24772298668404 111.40011142369511 C 0.0 **** -0.24
15507 H 30.82447071860193 85.32644227653446 111.46334203069549 H 0.0 **** 0.06
15508 H 32.15540349953983 86.25933609656676 112.18941250792969 H 0.0 **** 0.06
15509 H 30.739449396197998 87.10321670692224 111.51679462803921 H 0.0 **** 0.06
15510 H 31.896101920777653 86.29983363207825 110.42790488949015 H 0.0 **** 0.06
15511 C 48.0820037282125 85.01254753417102 104.66106684084303 C 0.0 **** -0.24
15512 H 48.76174514558855 84.94899433752344 103.81143159039907 H 0.0 **** 0.06
15513 H 47.079406947539155 84.72059951308351 104.34730967139858 H 0.0 **** 0.06
15514 H 48.06189374708583 86.03648520082561 105.03521220595995 H 0.0 **** 0.06
15515 H 48.424485206142236 84.34414437335269 105.45118843610372 H 0.0 **** 0.06
15516 C 31.554568586582214 119.65291074906037 16.646459328809613 C 0.0 **** -0.24
15517 H 30.60149580084289 120.08859380910027 16.34442774438463 H 0.0 **** 0.06
15518 H 31.705467160140607 119.81593070860322 17.71427423097964 H 0.0 **** 0.06
15519 H 32.3620417316507 120.12636477107404 16.088204133665784 H 0.0 **** 0.06
15520 H 31.546749951554112 118.58350441548774 16.43863881985675 H 0.0 **** 0.06
15521 C 1.7701768349652127 110.31238876467896 70.51717928491684 C 0.0 **** -0.24
15522 H 2.5573906798007613 109.56380220778567 70.61023859436887 H 0.0 **** 0.06
15523 H 0.8870322643607835 109.97931568134223 71.06108495745372 H 0.0 **** 0.06
15524 H 1.5205291473511409 110.44661408073401 69.46481050427394 H 0.0 **** 0.06
15525 H 2.1182142435445996 111.25780702601449 70.93163997769665 H 0.0 **** 0.06
15526 C 22.44499072962097 88.45415184181923 89.49550555061674 C 0.0 **** -0.24
15527 H 22.91513320490435 89.05977538252995 90.27053888617729 H 0.0 **** 0.06
15528 H 23.198342861223274 87.82758897963606 89.01829804760939 H 0.0 **** 0.06
15529 H 21.99008565134983 89.10732819780169 88.75044480110355 H 0.0 **** 0.06
15530 H 21.67725875380429 87.82337026167113 89.94420557356105 H 0.0 **** 0.06
15531 C 63.89976075119719 93.17869975126463 17.005084341239183 C 0.0 **** -0.24
15532 H 63.089520751937584 93.61095333923014 16.416853503388722 H 0.0 **** 0.06
15533 H 64.10825819794388 93.82043894179368 17.862462451580996 H 0.0 **** 0.06
15534 H 64.79405655522402 93.0964159293492 16.386997872238 H 0.0 **** 0.06
15535 H 63.606840903435966 92.18927704145962 17.35482292412172 H 0.0 **** 0.06
15536 C 75.61466612501152 27.275080229790376 87.290711022648 C 0.0 **** -0.24
15537 H 75.52152845535056 28.04591849113814 86.52544751187878 H 0.0 **** 0.06
15538 H 74.70439505338078 27.247482473469006 87.88974809590127 H 0.0 **** 0.06
15539 H 76.46560069039049 27.501686770264143 87.93313168954637 H 0.0 **** 0.06
15540 H 75.76615083872889 26.307223354968016 86.81476268954958 H 0.0 **** 0.06
15541 C 3.3625489301909965 81.48553786273499 120.1105554567254 C 0.0 **** -0.24
15542 H 2.4125961758061862 80.9957626950314 120.32572410296243 H 0.0 **** 0.06
15543 H 4.079607399170982 80.7464597399674 119.75128087141384 H 0.0 **** 0.06
15544 H 3.7442642667866153 81.95233314192615 121.0179930467319 H 0.0 **** 0.06
15545 H 3.212422044646587 82.24875526386077 119.34550597357766 H 0.0 **** 0.06
15546 C 9.352668364098804 9.5956941469004 95.62861071489363 C 0.0 **** -0.24
15547 H 9.958531493523964 8.737932139877898 95.92087717784015 H 0.0 **** 0.06
15548 H 8.70188343586642 9.879351155760844 96.45649791711833 H 0.0 **** 0.06
15549 H 8.745055431751268 9.332670416080646 94.76195761981384 H 0.0 **** 0.06
15550 H 10.004051745538789 10.432017058916244 95.37526877881265 H 0.0 **** 0.06
15551 C 10.272842376489962 126.65969546935415 106.66490101655111 C 0.0 **** -0.24
15552 H 11.112071260380162 125.96493388544044 106.67579305507978 H 0.0 **** 0.06
15553 H 9.537648136825794 126.35298026384103 107.41032224094315 H 0.0 **** 0.06
15554 H 9.812131495382204 126.65727239420372 105.67732466383006 H 0.0 **** 0.06
15555 H 10.629034711105788 127.66295420856429 106.89732811183224 H 0.0 **** 0.06
15556 C 42.367681162522615 112.96469644071864 67.30491987373668 C 0.0 **** -0.24
15557 H 43.21974453582746 112.55530115273466 67.84642509560973 H 0.0 **** 0.06
15558 H 41.632135853023755 113.34207358050936 68.01563225358237 H 0.0 **** 0.06
15559 H 41.915255478332 112.18344975416248 66.69318696713268 H 0.0 **** 0.06
15560 H 42.70311433397376 113.77999731038038 66.66315854408532 H 0.0 **** 0.06
15561 C 15.76212441722106 23.886573682551955 26.513371588079437 C 0.0 **** -0.24
15562 H 15.203372180078588 24.814787457690613 26.393377424412662 H 0.0 **** 0.06
15563 H 16.236067765790807 23.871627816021146 27.495121976596863 H 0.0 **** 0.06
15564 H 16.527789981232672 23.82156012706912 25.739861413794273 H 0.0 **** 0.06
15565 H 15.082208405060811 23.039369110353675 26.425240535341587 H 0.0 **** 0.06
15566 C 12.510568285617296 115.12417239495085 25.144431652379154 C 0.0 **** -0.24
15567 H 13.165599007096745 115.13989202976785 24.273377053844627 H 0.0 **** 0.06
15568 H 11.570904772493009 115.62015991449925 24.900523160630826 H 0.0 **** 0.06
15569 H 12.993886856474774 115.64632439866244 25.970266939602453 H 0.0 **** 0.06
15570 H 12.31286619704045 114.09192404199234 25.432897727851895 H 0.0 **** 0.06
15571 C 44.400315658432845 15.104079742491962 1.9401842996796859 C 0.0 **** -0.24
15572 H 44.11858843233338 15.680902319472949 1.0591684289164789 H 0.0 **** 0.06
15573 H 45.41029162872505 14.714449725620966 1.8119483043211346 H 0.0 **** 0.06
15574 H 43.703941392243934 14.276099486985487 2.0700457857705032 H 0.0 **** 0.06
15575 H 44.367739839427 15.747668485721448 2.8203887776034264 H 0.0 **** 0.06
15576 C 115.07539327510658 56.6701751977277 86.87368564872557 C 0.0 **** -0.24
15577 H 115.71401595473344 56.65899056886866 85.99128247403573 H 0.0 **** 0.06
15578 H 114.43141601010701 57.54938127753968 86.84495508551814 H 0.0 **** 0.06
15579 H 115.69396819511192 56.70133722565498 87.77053037147263 H 0.0 **** 0.06
15580 H 114.46052335279443 55.77046972815029 86.88805562094527 H 0.0 **** 0.06
15581 C 79.9198380979488 103.89478778158085 126.94010382002932 C 0.0 **** -0.24
15582 H 79.60368268809421 104.74071094095441 126.32962757842412 H 0.0 **** 0.06
15583 H 81.007698309593 103.83878269559867 126.94858783831928 H 0.0 **** 0.06
15584 H 79.51093860492657 102.97483841001616 126.52349036562893 H 0.0 **** 0.06
15585 H 79.5534409959474 104.02584747925246 127.95891492200485 H 0.0 **** 0.06
15586 C 130.23195299253047 22.478604498726327 127.21720042442922 C 0.0 **** -0.24
15587 H 129.3349526872447 22.672894641211656 127.80474891842186 H 0.0 **** 0.06
15588 H 129.96682428048626 22.404346013780753 126.16339977323264 H 0.0 **** 0.06
15589 H 130.68525850470377 21.543667325279557 127.54576249297122 H 0.0 **** 0.06
15590 H 130.94068193196125 23.295371691903426 127.35781042515424 H 0.0 **** 0.06
15591 C 73.71290142244908 2.139507696149302 116.60725351626081 C 0.0 **** -0.24
15592 H 73.1365726400216 3.042767204600711 116.4089713375289 H 0.0 **** 0.06
15593 H 74.04622020710383 1.7061416681597557 115.66396142094729 H 0.0 **** 0.06
15594 H 73.08915296553522 1.4199088186087216 117.13732027976434 H 0.0 **** 0.06
15595 H 74.58062618668896 2.3893297783324385 117.21899056194803 H 0.0 **** 0.06
15596 C 29.46487825053292 70.24790662428734 49.62480136325493 C 0.0 **** -0.24
15597 H 30.08977738990677 71.03299134161045 50.05102729577558 H 0.0 **** 0.06
15598 H 28.738024362250115 70.69195258675768 48.94378583951007 H 0.0 **** 0.06
15599 H 28.94143920079054 69.72481816142488 50.424717893807895 H 0.0 **** 0.06
15600 H 30.091913563356897 69.5423960047221 49.07793569704796 H 0.0 **** 0.06
15601 C 43.458092466538574 55.006094596745754 75.2615624893553 C 0.0 **** -0.24
15602 H 42.424710842493795 55.29858500881744 75.45000954947756 H 0.0 **** 0.06
15603 H 43.63235283717876 54.96400396049353 74.18556515094804 H 0.0 **** 0.06
15604 H 43.642995211793874 54.024969452430014 75.69914780146547 H 0.0 **** 0.06
15605 H 44.13047063569164 55.73626395558546 75.71000944982006 H 0.0 **** 0.06
15606 C 129.67958701782922 36.62644889145295 121.76091907223531 C 0.0 **** -0.24
15607 H 130.10928871531783 36.544821491466394 120.76174292384597 H 0.0 **** 0.06
15608 H 128.75944293692692 37.20929282176489 121.71369279878192 H 0.0 **** 0.06
15609 H 130.39104089219546 37.12227242905939 122.42143847735629 H 0.0 **** 0.06
15610 H 129.46041391160963 35.62976955092523 122.14406515038367 H 0.0 **** 0.06
15611 C 66.60302663180482 113.95803639556803 59.90632944805998 C 0.0 **** -0.24
15612 H 66.62734701382297 113.18513269176199 60.67555044436267 H 0.0 **** 0.06
15613 H 67.55532421432434 113.9711393989206 59.375058178551285 H 0.0 **** 0.06
15614 H 66.43258513632634 114.92789204739992 60.37218790521564 H 0.0 **** 0.06
15615 H 65.79719802291767 113.74504081806825 59.20363134104764 H 0.0 **** 0.06
15616 C 105.73846153558898 114.07426394001045 108.31596567017772 C 0.0 **** -0.24
15617 H 105.55410968999897 113.08162096221592 107.90428518156803 H 0.0 **** 0.06
15618 H 105.63195866952914 114.04202738749943 109.40092718717155 H 0.0 **** 0.06
15619 H 105.01921078147237 114.77951183939429 107.90081851130762 H 0.0 **** 0.06
15620 H 106.74847851291581 114.3917780055909 108.06017885121959 H 0.0 **** 0.06
15621 C 62.90027317951632 7.380513512638686 53.90193422209819 C 0.0 **** -0.24
15622 H 62.281607014400834 7.955634367805118 53.21177790338723 H 0.0 **** 0.06
15623 H 63.47103355749573 8.06297324374927 54.53226652899241 H 0.0 **** 0.06
15624 H 63.585474872860686 6.750073631571894 53.335208832528025 H 0.0 **** 0.06
15625 H 62.262680255035264 6.755453329909557 54.52591772758072 H 0.0 **** 0.06
15626 C 60.22555552525384 44.37594515800299 118.75361586021279 C 0.0 **** -0.24
15627 H 59.34633858622077 44.48975637263064 119.38903709259243 H 0.0 **** 0.06
15628 H 60.05044784437614 43.57811734548599 118.03145550047755 H 0.0 **** 0.06
15629 H 61.088803330260035 44.12466029469479 119.3699109336322 H 0.0 **** 0.06
15630 H 60.415163234862845 45.31021604778394 118.22539405504568 H 0.0 **** 0.06
15631 C 54.32139628864138 71.31971588857847 24.295511425351137 C 0.0 **** -0.24
15632 H 54.059259463043816 70.2784515661811 24.48332082811166 H 0.0 **** 0.06
15633 H 53.88096453025504 71.64110161460138 23.351761701402523 H 0.0 **** 0.06
15634 H 55.40621046334472 71.41723962288134 24.242221115472574 H 0.0 **** 0.06
15635 H 53.939883186444035 71.9405938583898 25.106553847110263 H 0.0 **** 0.06
15636 C 117.22731195233919 88.47288804829097 6.57204017901643 C 0.0 **** -0.24
15637 H 117.27759441707954 87.77751123706972 7.408795298155752 H 0.0 **** 0.06
15638 H 116.22052532503139 88.46577121219295 6.15354818781212 H 0.0 **** 0.06
15639 H 117.9414876674079 88.1709366093256 5.806296868772801 H 0.0 **** 0.06
15640 H 117.4691400941933 89.4779860936097 6.918951683286959 H 0.0 **** 0.06
15641 C 73.24481819502189 104.99536109866116 71.52192374314849 C 0.0 **** -0.24
15642 H 73.42609154237623 103.93627547314924 71.33791532857403 H 0.0 **** 0.06
15643 H 73.9310441927218 105.59095764256094 70.92028757491038 H 0.0 **** 0.06
15644 H 73.4028189240188 105.21353425710687 72.57790512910768 H 0.0 **** 0.06
15645 H 72.21773582424059 105.23955791190852 71.2500888526404 H 0.0 **** 0.06
15646 C 4.642511524431313 117.01921372397041 100.19103827084187 C 0.0 **** -0.24
15647 H 5.531029420522458 117.33389294095483 99.64406260031444 H 0.0 **** 0.06
15648 H 4.387950909514046 117.77459861321434 100.93442849703104 H 0.0 **** 0.06
15649 H 4.839641467608999 116.07053336051322 100.69025547954588 H 0.0 **** 0.06
15650 H 3.811969892417693 116.89866259961852 99.49531094750068 H 0.0 **** 0.06
15651 C 112.85058807069855 10.880512417990815 51.18668856777295 C 0.0 **** -0.24
15652 H 112.07399680682079 11.185663259959142 51.88812527125465 H 0.0 **** 0.06
15653 H 112.39964766960355 10.313486775306984 50.37071596476275 H 0.0 **** 0.06
15654 H 113.58065836718858 10.257633539197002 51.702109417499344 H 0.0 **** 0.06
15655 H 113.34467038224035 11.764234116395954 50.7845716384855 H 0.0 **** 0.06
15656 C 28.485852898353002 96.12136359064641 102.93208397202784 C 0.0 **** -0.24
15657 H 27.49128280868601 95.68464552808757 103.01125487307479 H 0.0 **** 0.06
15658 H 28.683817490738896 96.38851975509976 101.89375353010797 H 0.0 **** 0.06
15659 H 29.22861961203367 95.39744648960766 103.26804995113923 H 0.0 **** 0.06
15660 H 28.54178904100987 97.01439190053202 103.55464646808213 H 0.0 **** 0.06
15661 C 48.75513305224595 76.38624050507605 11.52011660479134 C 0.0 **** -0.24
15662 H 48.187568358022844 77.04888969196455 10.867030222124725 H 0.0 **** 0.06
15663 H 49.59300048078589 75.96116764660042 10.966652280008375 H 0.0 **** 0.06
15664 H 48.108743656124034 75.5842009975116 11.874981065848743 H 0.0 **** 0.06
15665 H 49.13297895791675 76.9529108762172 12.371986731948937 H 0.0 **** 0.06
15666 C 49.27747695078892 111.05205377953075 66.63621936126597 C 0.0 **** -0.24
15667 H 49.34236878923855 112.12608288122277 66.46396382559044 H 0.0 **** 0.06
15668 H 50.25274060154305 110.67387722656139 66.94296809278629 H 0.0 **** 0.06
15669 H 48.96662161431345 110.55539982887166 65.71638440057735 H 0.0 **** 0.06
15670 H 48.546147618246835 110.85408464419993 67.41972500132765 H 0.0 **** 0.06
15671 C 68.5299378525265 93.50485020494106 105.04967376617483 C 0.0 **** -0.24
15672 H 69.43143044081098 94.11644219080004 105.09592167243673 H 0.0 **** 0.06
15673 H 68.70099203844143 92.56786720028997 105.57914968889443 H 0.0 **** 0.06
15674 H 68.28636415874708 93.2958168094766 104.00882446433255 H 0.0 **** 0.06
15675 H 67.70368163029065 94.04114209096306 105.51656898876436 H 0.0 **** 0.06
15676 C 104.48234431673097 106.41588210354516 85.88288540094052 C 0.0 **** -0.24
15677 H 105.43787847812706 106.49051402605932 86.40345537362157 H 0.0 **** 0.06
15678 H 103.94980059759968 107.36363806236844 85.96350991904242 H 0.0 **** 0.06
15679 H 103.88415491933029 105.62329598519645 86.33304669554096 H 0.0 **** 0.06
15680 H 104.6593485848698 106.18554929948175 84.83220715827568 H 0.0 **** 0.06
15681 C 127.07934979825879 39.8083565818049 108.63859618994026 C 0.0 **** -0.24
15682 H 127.45193462612687 40.76552831662815 108.27454227379906 H 0.0 **** 0.06
15683 H 126.87530399941389 39.15200829043127 107.79226485073733 H 0.0 **** 0.06
15684 H 126.16169329115448 39.96714277514778 109.20547358446186 H 0.0 **** 0.06
15685 H 127.82918601949874 39.34929556011133 109.2831914980687 H 0.0 **** 0.06
15686 C 49.27718684131793 69.18360267904498 34.997285979552835 C 0.0 **** -0.24
15687 H 48.579100990599215 69.69204407521173 35.66337834581832 H 0.0 **** 0.06
15688 H 49.115618225788864 69.52531352221457 33.974162410032264 H 0.0 **** 0.06
15689 H 49.11370712212289 68.10802280424197 35.05134793909678 H 0.0 **** 0.06
15690 H 50.29856862899237 69.41224298617271 35.29947507830966 H 0.0 **** 0.06
15691 C 33.2861333445432 40.6981457240428 53.2505222750748 C 0.0 **** -0.24
15692 H 33.97651040162711 41.216459883612345 52.58542574531916 H 0.0 **** 0.06
15693 H 32.468785393304216 41.3676656711059 53.51923747791895 H 0.0 **** 0.06
15694 H 33.81409179720174 40.38948530393503 54.15366411058018 H 0.0 **** 0.06
15695 H 32.88620129857256 39.8188695035123 52.74596986878046 H 0.0 **** 0.06
15696 C 122.55823000049907 1.6524163558791827 46.10426610628527 C 0.0 **** -0.24
15697 H 122.68552423220336 0.8543051008774967 45.37274571399661 H 0.0 **** 0.06
15698 H 123.41877930719971 1.6719747290872817 46.773110512992695 H 0.0 **** 0.06
15699 H 121.65161900641107 1.4738086689106638 46.68247910616803 H 0.0 **** 0.06
15700 H 122.47732675963607 2.608864683994824 45.58663515973979 H 0.0 **** 0.06
15701 C 31.218265307481005 6.178650430661662 72.88867250605271 C 0.0 **** -0.24
15702 H 30.67453091981767 5.271037861214609 73.15553005229155 H 0.0 **** 0.06
15703 H 31.473402799467493 6.1489401024361 71.82884294968171 H 0.0 **** 0.06
15704 H 32.13057881177096 6.24258636279572 73.48184342971902 H 0.0 **** 0.06
15705 H 30.592007384575965 7.0482271715637665 73.08863197440262 H 0.0 **** 0.06
15706 C 23.221395007723686 60.42663512326013 122.36634792281285 C 0.0 **** -0.24
15707 H 23.956636022744988 59.9412392220338 121.72491911808879 H 0.0 **** 0.06
15708 H 23.35608771237878 60.08704626951938 123.39302884876332 H 0.0 **** 0.06
15709 H 22.21793871378202 60.17073910897696 122.02680095533206 H 0.0 **** 0.06
15710 H 23.356814110934238 61.50752851721377 122.31945816013504 H 0.0 **** 0.06
15711 C 13.486551449502045 37.26407240548917 23.766401877430013 C 0.0 **** -0.24
15712 H 14.500896311812273 37.4854646741274 23.43377226581846 H 0.0 **** 0.06
15713 H 13.418035240332276 37.40968387568739 24.844517968440968 H 0.0 **** 0.06
15714 H 13.242936702111777 36.229401854796095 23.523343809294204 H 0.0 **** 0.06
15715 H 12.785948783378412 37.93002240995969 23.263297585288825 H 0.0 **** 0.06
15716 C 110.8323476644362 62.62976491828272 119.24352435615475 C 0.0 **** -0.24
15717 H 110.9647538397549 63.710008994330934 119.18340939235989 H 0.0 **** 0.06
15718 H 111.46109273531228 62.144722623034454 118.49620305192337 H 0.0 **** 0.06
15719 H 109.78734368048099 62.381910435670136 119.05574700535499 H 0.0 **** 0.06
15720 H 111.11549149026843 62.28304066305306 120.23671077467071 H 0.0 **** 0.06
15721 C 73.02009704383134 127.93193529320929 51.71851691956769 C 0.0 **** -0.24
15722 H 72.10915581893083 127.94939420904764 52.31690871903092 H 0.0 **** 0.06
15723 H 72.94666156131687 128.6716772665386 50.92079919964311 H 0.0 **** 0.06
15724 H 73.15026322037981 126.94052864595008 51.284136764557445 H 0.0 **** 0.06
15725 H 73.87595880818884 128.1648311914132 52.352969972133366 H 0.0 **** 0.06
15726 C 88.6401886334598 87.10895835019565 11.843117883586814 C 0.0 **** -0.24
15727 H 88.62388456288451 87.19569080661262 12.929349951229256 H 0.0 **** 0.06
15728 H 88.86271616079831 86.0786980303443 11.563787090993202 H 0.0 **** 0.06
15729 H 89.40664956564163 87.76934288825731 11.436760400312437 H 0.0 **** 0.06
15730 H 87.66686138256448 87.39173335798188 11.441902432213084 H 0.0 **** 0.06
15731 C 108.20115895807393 80.1938270992422 73.38308812856684 C 0.0 **** -0.24
15732 H 108.70772384325406 80.81210253668701 74.12375940154978 H 0.0 **** 0.06
15733 H 107.50357799991488 80.80834057746766 72.81201056052831 H 0.0 **** 0.06
15734 H 107.65515263019176 79.39674662235717 73.88755047996746 H 0.0 **** 0.06
15735 H 108.93860474445883 79.75845570477529 72.70819111932497 H 0.0 **** 0.06
15736 C 72.14234369421537 73.92141007936175 124.52877349604842 C 0.0 **** -0.24
15737 H 71.55476824603042 73.22247939164563 123.93351938673459 H 0.0 **** 0.06
15738 H 71.65752494341646 74.0731887245312 125.49375461346335 H 0.0 **** 0.06
15739 H 72.21421503296908 74.87454966695887 124.00556142901252 H 0.0 **** 0.06
15740 H 73.14190675774182 73.51571670164059 124.68425668801564 H 0.0 **** 0.06
15741 C 130.09792611357395 33.71457878574865 49.771816382714206 C 0.0 **** -0.24
15742 H 129.17463593447678 34.144315527207524 50.15955600291551 H 0.0 **** 0.06
15743 H 130.2042561517489 33.97243086849058 48.71776575015127 H 0.0 **** 0.06
15744 H 130.06715659175507 32.63016395014649 49.879877463553356 H 0.0 **** 0.06
15745 H 130.9458829511176 34.111288124345826 50.33103318290148 H 0.0 **** 0.06
15746 C 44.4528688617831 29.24242946265076 23.281627392131895 C 0.0 **** -0.24
15747 H 43.52600124274893 29.694116955946555 22.925538364418458 H 0.0 **** 0.06
15748 H 44.25298208338116 28.22486477969113 23.618210062219532 H 0.0 **** 0.06
15749 H 44.847348711023685 29.829460820275784 24.110423656955277 H 0.0 **** 0.06
15750 H 45.18100180205896 29.220825234303362 22.47105467843147 H 0.0 **** 0.06
15751 C 108.60669878103715 72.75916549191544 64.94495257179261 C 0.0 **** -0.24
15752 H 109.16430905944912 72.17526785855767 64.2127164097032 H 0.0 **** 0.06
15753 H 107.71222378096843 73.16942787765424 64.47688560613204 H 0.0 **** 0.06
15754 H 109.23124149455111 73.5736580657283 65.31243418736494 H 0.0 **** 0.06
15755 H 108.3185932937813 72.1179455467381 65.77860222110024 H 0.0 **** 0.06
15756 C 88.40895090454364 96.26809240381196 75.75231195356845 C 0.0 **** -0.24
15757 H 88.38661624885653 97.12392915220505 76.42818190066615 H 0.0 **** 0.06
15758 H 87.50027489293473 95.68051896757501 75.88080240376249 H 0.0 **** 0.06
15759 H 89.27691767795814 95.64995897262547 75.97847368184385 H 0.0 **** 0.06
15760 H 88.47170824319267 96.6200636875837 74.72249924506829 H 0.0 **** 0.06
15761 C 128.66564538005142 50.132249753107004 109.75730356100456 C 0.0 **** -0.24
15762 H 128.33251638621678 49.117742084068965 109.9780834959843 H 0.0 **** 0.06
15763 H 128.90316378272715 50.21328447066577 108.69631256900807 H 0.0 **** 0.06
15764 H 129.5548218047425 50.35895273034717 110.34719051750277 H 0.0 **** 0.06
15765 H 127.8737989718812 50.83734923079177 110.00813100373435 H 0.0 **** 0.06
15766 C 50.6223373701155 85.76159816582334 84.78725359386915 C 0.0 **** -0.24
15767 H 50.310467773329805 84.87075633050058 85.33334031130549 H 0.0 **** 0.06
15768 H 49.82762071840651 86.06529966139097 84.10528485644465 H 0.0 **** 0.06
15769 H 51.525620771707935 85.540786245282 84.21868640071371 H 0.0 **** 0.06
15770 H 50.82432115245638 86.5678384753525 85.49285590238956 H 0.0 **** 0.06
15771 C 120.10526445700086 24.66100437617426 118.95656660207642 C 0.0 **** -0.24
15772 H 120.41684523538152 24.99722698449279 117.96761349455754 H 0.0 **** 0.06
15773 H 120.97139813459606 24.6294914165736 119.61817970720837 H 0.0 **** 0.06
15774 H 119.6694804515275 23.664249965424744 118.88074790445282 H 0.0 **** 0.06
15775 H 119.36520471702991 25.35200559495283 119.35853711216947 H 0.0 **** 0.06
15776 C 95.95804060057911 99.3938297912658 18.864994368367597 C 0.0 **** -0.24
15777 H 96.71760705372148 98.97361946184631 18.20627248891106 H 0.0 **** 0.06
15778 H 96.18880865630192 99.13402779285386 19.898488702263805 H 0.0 **** 0.06
15779 H 94.98126254577737 98.9882192537153 18.598466171251225 H 0.0 **** 0.06
15780 H 95.94267264677376 100.47780927855067 18.75688469488832 H 0.0 **** 0.06
15781 C 111.16828389093088 109.27463355969087 101.94551683394354 C 0.0 **** -0.24
15782 H 111.13636583944385 110.19817979642448 102.52359040844976 H 0.0 **** 0.06
15783 H 110.22278099349995 108.74255681584577 102.06001223158842 H 0.0 **** 0.06
15784 H 111.98386061977716 108.64831673644386 102.30702797815354 H 0.0 **** 0.06
15785 H 111.32842392264726 109.50968932232348 100.8938969617937 H 0.0 **** 0.06
15786 C 23.233321435377547 26.143965928832642 37.670613928473074 C 0.0 **** -0.24
15787 H 23.62773998899496 26.162310417492563 38.68635697072176 H 0.0 **** 0.06
15788 H 22.899371220207854 25.133718988232005 37.42882687092032 H 0.0 **** 0.06
15789 H 24.013507204187192 26.44582373742557 36.972338581859105 H 0.0 **** 0.06
15790 H 22.392009320789214 26.831963088126315 37.59554575683711 H 0.0 **** 0.06
15791 C 51.067360828530866 46.43534823869703 109.09535064876582 C 0.0 **** -0.24
15792 H 51.82103133580739 46.92279539197612 109.71345054745433 H 0.0 **** 0.06
15793 H 50.47379674966621 45.76077322109258 109.71221261678085 H 0.0 **** 0.06
15794 H 51.556988816784695 45.86870854317439 108.30382091760305 H 0.0 **** 0.06
15795 H 50.41636293500014 47.19069151629989 108.65287821084107 H 0.0 **** 0.06
15796 C 52.918209740304945 31.364346551597038 87.31628861069026 C 0.0 **** -0.24
15797 H 53.36681730635182 32.303760165621355 87.64068779734382 H 0.0 **** 0.06
15798 H 53.687622033442665 30.5938099219116 87.265244436476 H 0.0 **** 0.06
15799 H 52.47081924859299 31.49646230653559 86.33118829035462 H 0.0 **** 0.06
15800 H 52.149837679485415 31.06405288489637 88.02738878301842 H 0.0 **** 0.06
15801 C 115.3208894209448 84.77337752687549 33.19532863563802 C 0.0 **** -0.24
15802 H 114.27942279908383 85.08237926167823 33.10314565053278 H 0.0 **** 0.06
15803 H 115.40933327097021 83.71567865448267 32.9441547192672 H 0.0 **** 0.06
15804 H 115.6582343556654 84.93364117355316 34.21840699060857 H 0.0 **** 0.06
15805 H 115.93476286878914 85.36186334605725 32.51342959432537 H 0.0 **** 0.06
15806 C 24.676051816621907 60.07209612514589 101.51934215823616 C 0.0 **** -0.24
15807 H 25.72828153597368 60.066691566314745 101.80406463405188 H 0.0 **** 0.06
15808 H 24.06848722278471 59.764126083752004 102.37028292370672 H 0.0 **** 0.06
15809 H 24.520080263771888 59.379054156169985 100.6914277399328 H 0.0 **** 0.06
15810 H 24.388371273580333 61.07682653554434 101.21123158496385 H 0.0 **** 0.06
15811 C 12.371801545294545 108.6303952185923 0.89861183549354 C 0.0 **** -0.24
15812 H 11.845611791745966 107.81678407494059 1.3979150720891234 H 0.0 **** 0.06
15813 H 11.671478416592123 109.43732435934567 0.6833670062705508 H 0.0 **** 0.06
15814 H 12.804815230251933 108.26595504241368 -0.03228016024990765 H 0.0 **** 0.06
15815 H 13.165712552126507 109.00103089307748 1.5478106007884698 H 0.0 **** 0.06
15816 C 24.52897230501872 115.21896257831756 50.87051202545496 C 0.0 **** -0.24
15817 H 25.132548755202436 114.643538824138 51.57261063387108 H 0.0 **** 0.06
15818 H 24.823534750474934 116.26760168426006 50.913737836835196 H 0.0 **** 0.06
15819 H 23.47569158615414 115.12566740809726 51.13511589746793 H 0.0 **** 0.06
15820 H 24.684114128243372 114.839042396775 49.86058373364523 H 0.0 **** 0.06
15821 C 98.6904811726967 115.99976409107559 65.54922236563374 C 0.0 **** -0.24
15822 H 97.86267493843609 115.4218244262314 65.95929920591107 H 0.0 **** 0.06
15823 H 98.51835182135412 117.06134330304148 65.73050007424501 H 0.0 **** 0.06
15824 H 98.76217893183488 115.82045662249087 64.47609619558693 H 0.0 **** 0.06
15825 H 99.61980626541275 115.69458036661273 66.03129839312265 H 0.0 **** 0.06
15826 C 79.95796619861864 50.263922769679056 89.32452068559695 C 0.0 **** -0.24
15827 H 79.08654438839072 49.83815647803334 89.82009455432569 H 0.0 **** 0.06
15828 H 80.85515448289395 50.015793494205155 89.89169395748655 H 0.0 **** 0.06
15829 H 79.8515457655725 51.346806297248605 89.26713271289526 H 0.0 **** 0.06
15830 H 80.04051039197196 49.85347825485488 88.31734328585202 H 0.0 **** 0.06
15831 C 128.73672835891105 109.41588069598006 106.76961075347961 C 0.0 **** -0.24
15832 H 129.82431481093408 109.49461522226878 106.75084573978233 H 0.0 **** 0.06
15833 H 128.30594456533407 110.20206316067058 106.14937052646253 H 0.0 **** 0.06
15834 H 128.38243608273237 109.52546513254694 107.794163658763 H 0.0 **** 0.06
15835 H 128.43699946032226 108.44184783380638 106.38304117962824 H 0.0 **** 0.06
15836 C 19.497591255596653 17.224868052374234 58.89716671327338 C 0.0 **** -0.24
15837 H 18.64713207248517 16.909184500749404 58.29178202823536 H 0.0 **** 0.06
15838 H 19.754744054755086 18.255375914852323 58.65252525543795 H 0.0 **** 0.06
15839 H 20.350540720707336 16.578000477551598 58.69015932213628 H 0.0 **** 0.06
15840 H 19.236516427616138 17.15552363607543 59.952777299567146 H 0.0 **** 0.06
15841 C 11.430081382536684 44.07882234128351 50.43342071361175 C 0.0 **** -0.24
15842 H 10.999091434589133 44.60450625426955 49.580918748701095 H 0.0 **** 0.06
15843 H 10.97063107430614 43.095005799748975 50.52334200731323 H 0.0 **** 0.06
15844 H 11.247005629560135 44.651364788735776 51.343219558141556 H 0.0 **** 0.06
15845 H 12.504036872367948 43.96730193579097 50.28499477112183 H 0.0 **** 0.06
15846 C 64.73279009516085 117.96046410377355 105.69092361934693 C 0.0 **** -0.24
15847 H 65.6998408649998 117.88966951438319 105.19363761492959 H 0.0 **** 0.06
15848 H 63.95081150654323 117.61126384959381 105.01556503346036 H 0.0 **** 0.06
15849 H 64.54028680522427 118.99785787437355 105.96483807177064 H 0.0 **** 0.06
15850 H 64.74028068991919 117.3426321950298 106.58830872929236 H 0.0 **** 0.06
15851 C 96.35609335718004 102.7068992503361 104.84837250209631 C 0.0 **** -0.24
15852 H 96.80694961987206 103.62011631548368 105.23799250215434 H 0.0 **** 0.06
15853 H 95.65005882264262 102.95981045972343 104.05655768817708 H 0.0 **** 0.06
15854 H 95.83281288826038 102.19003281979892 105.65213369306339 H 0.0 **** 0.06
15855 H 97.13622597744444 102.06003298188725 104.44612800349994 H 0.0 **** 0.06
15856 C 122.83530650663005 20.033551066319177 79.87791066510817 C 0.0 **** -0.24
15857 H 123.07715118735308 21.07497265862287 79.66743585688008 H 0.0 **** 0.06
15858 H 122.30851286484767 19.604357159236685 79.02579946196241 H 0.0 **** 0.06
15859 H 122.2005151874053 19.980364415343388 80.76194267020222 H 0.0 **** 0.06
15860 H 123.7545710104722 19.476628242938375 80.05700048782754 H 0.0 **** 0.06
15861 C 3.316574867979586 56.13249686596302 130.53769124762368 C 0.0 **** -0.24
15862 H 2.475576082130342 56.585087975866315 131.06379184986542 H 0.0 **** 0.06
15863 H 3.048324306864668 55.1242997566636 130.22379217057633 H 0.0 **** 0.06
15864 H 4.179123860217242 56.0900368317773 131.20249109085148 H 0.0 **** 0.06
15865 H 3.56247549440992 56.73308276090657 129.66210806004776 H 0.0 **** 0.06
15866 C 67.15686423067683 92.95107928390597 58.573867731546244 C 0.0 **** -0.24
15867 H 66.25130246778673 92.37415427503034 58.38454543400947 H 0.0 **** 0.06
15868 H 67.61472694190869 92.61182252796229 59.5030706499677 H 0.0 **** 0.06
15869 H 66.90247238738294 94.00726211210362 58.65825997980964 H 0.0 **** 0.06
15870 H 67.85594124296398 92.80917762287426 57.750147100734324 H 0.0 **** 0.06
15871 C 69.00909800761332 54.58751799551678 10.515634360389612 C 0.0 **** -0.24
15872 H 69.87318224193086 54.683375924470226 11.174100939785717 H 0.0 **** 0.06
15873 H 68.11717322455361 54.395566563378935 11.11259108743404 H 0.0 **** 0.06
15874 H 69.17032516676534 53.75929306570899 9.8247640376884 H 0.0 **** 0.06
15875 H 68.87787545207848 55.511421801548096 9.951462468144115 H 0.0 **** 0.06
15876 C 100.61432024789384 87.21780073359744 21.674328538097598 C 0.0 **** -0.24
15877 H 101.6961690111124 87.31524851557732 21.76346123767547 H 0.0 **** 0.06
15878 H 100.17067044129848 88.20535242938786 21.54645365576613 H 0.0 **** 0.06
15879 H 100.21653512241566 86.75422611452767 22.577763153743547 H 0.0 **** 0.06
15880 H 100.37524921807072 86.59697256507118 20.811321668966116 H 0.0 **** 0.06
15881 C 104.791688147312 14.378188918833587 61.06081134528216 C 0.0 **** -0.24
15882 H 104.15217746987123 13.912917915557102 60.310843048974775 H 0.0 **** 0.06
15883 H 105.365610657018 13.608059259607558 61.57658722041326 H 0.0 **** 0.06
15884 H 104.17406546128727 14.915870011319555 61.78005102496175 H 0.0 **** 0.06
15885 H 105.47342881154195 15.076211682663313 60.57410671053785 H 0.0 **** 0.06
15886 C 128.59714398781165 3.720221520756038 49.68178024021982 C 0.0 **** -0.24
15887 H 127.71812476389516 4.0209928778902295 49.1132662420477 H 0.0 **** 0.06
15888 H 129.13302356550497 2.941318916089738 49.13838136437428 H 0.0 **** 0.06
15889 H 128.28779728449302 3.3372656596251886 50.65477250588596 H 0.0 **** 0.06
15890 H 129.25174835128257 4.581143881770004 49.82139881343721 H 0.0 **** 0.06
15891 C 111.42584005274963 4.746615647602312 0.7192901269541494 C 0.0 **** -0.24
15892 H 112.06027187864638 4.035903508031367 0.18948639529818934 H 0.0 **** 0.06
15893 H 111.31245502027187 4.42961769253202 1.756669362674387 H 0.0 **** 0.06
15894 H 110.44715592838756 4.788003963802254 0.24137292430185653 H 0.0 **** 0.06
15895 H 111.88603994469648 5.734786609809305 0.6895119923452171 H 0.0 **** 0.06
15896 C 81.10920016771318 75.36993021751098 16.352440118306333 C 0.0 **** -0.24
15897 H 80.40660488754607 75.6011600089465 15.550799165725437 H 0.0 **** 0.06
15898 H 81.45805558782554 76.2972853730528 16.806905505256736 H 0.0 **** 0.06
15899 H 81.95838401507565 74.82223273535561 15.943848969169522 H 0.0 **** 0.06
15900 H 80.61224986269148 74.75953275006046 17.105863468587614 H 0.0 **** 0.06
15901 C 65.23421428347683 99.75627494694163 90.10813957947585 C 0.0 **** -0.24
15902 H 66.20670230629273 100.1545136318307 90.39578590238091 H 0.0 **** 0.06
15903 H 64.74834088072906 99.31831845276218 90.98027353558753 H 0.0 **** 0.06
15904 H 65.36686895429479 98.99156646533822 89.34329508235348 H 0.0 **** 0.06
15905 H 64.61492966829991 100.56216186474285 89.71227293666176 H 0.0 **** 0.06
15906 C 126.2192408356442 108.9109205731237 65.46213145013188 C 0.0 **** -0.24
15907 H 126.77815256300013 109.74880477876557 65.879341505925 H 0.0 **** 0.06
15908 H 126.89909177697163 108.08128982595548 65.2696114262782 H 0.0 **** 0.06
15909 H 125.7457879566697 109.21777255600782 64.52967250494152 H 0.0 **** 0.06
15910 H 125.45374340807396 108.59639013300891 66.17205313957854 H 0.0 **** 0.06
15911 C 103.3077055259815 117.10141704869245 35.633852058397935 C 0.0 **** -0.24
15912 H 104.10346830337946 116.51804954648918 35.17182352147601 H 0.0 **** 0.06
15913 H 102.3406422800278 116.71117061638736 35.31475969189093 H 0.0 **** 0.06
15914 H 103.39749848364059 118.14395411537124 35.32913884587565 H 0.0 **** 0.06
15915 H 103.38866634002949 117.03120361833435 36.71866812671269 H 0.0 **** 0.06
15916 C 128.5676464348896 123.00273306065023 13.131964010265563 C 0.0 **** -0.24
15917 H 129.45071480475178 122.84835556343637 13.751070824039289 H 0.0 **** 0.06
15918 H 128.7211666341328 122.53806802967677 12.158150162608251 H 0.0 **** 0.06
15919 H 128.39586177676694 124.07079383913322 13.002934526149033 H 0.0 **** 0.06
15920 H 127.70131491109109 122.55192675659936 13.617272059508423 H 0.0 **** 0.06
15921 C 120.75355362404817 39.205939001100546 101.17117164698683 C 0.0 **** -0.24
15922 H 119.99787100680511 39.21328082629907 101.95686775076322 H 0.0 **** 0.06
15923 H 120.29445003055315 38.9117090792455 100.22780741862468 H 0.0 **** 0.06
15924 H 121.53932201333093 38.49695486497683 101.43112160038882 H 0.0 **** 0.06
15925 H 121.18227976452908 40.20404281456615 101.07170685512344 H 0.0 **** 0.06
15926 C 128.37219244692625 40.79646494231835 20.327510482158544 C 0.0 **** -0.24
15927 H 129.20103766933445 41.04362487428784 20.990521047656586 H 0.0 **** 0.06
15928 H 128.60973928751577 41.11840474629804 19.31379764926544 H 0.0 **** 0.06
15929 H 127.47015114075487 41.303786041244905 20.668759981408925 H 0.0 **** 0.06
15930 H 128.20849628758512 39.7189253082411 20.337528849434023 H 0.0 **** 0.06
15931 C 117.48196829807345 122.79104426546897 95.0795792674593 C 0.0 **** -0.24
15932 H 118.49559166786429 123.17760861073351 95.18426510807525 H 0.0 **** 0.06
15933 H 117.15807466303505 122.3613583948195 96.02698803903299 H 0.0 **** 0.06
15934 H 117.4652176778112 122.02242958405276 94.3064541835864 H 0.0 **** 0.06
15935 H 116.81052527456114 123.60275760306756 94.79898487568553 H 0.0 **** 0.06
15936 C 102.26256065924044 59.4004887889261 57.27544310314214 C 0.0 **** -0.24
15937 H 102.89288419808882 60.0225171200333 57.911948037912936 H 0.0 **** 0.06
15938 H 102.04167493536877 58.46345684789728 57.78755653080664 H 0.0 **** 0.06
15939 H 102.78427489504209 59.190231967651414 56.342244974467036 H 0.0 **** 0.06
15940 H 101.33192820898125 59.92589103224745 57.06133054538151 H 0.0 **** 0.06
15941 C 25.059105760196076 48.96453030031175 70.34083059079529 C 0.0 **** -0.24
15942 H 23.974785692968283 49.02751508144925 70.24505260329065 H 0.0 **** 0.06
15943 H 25.318077875613085 48.11049441226795 70.9666753129963 H 0.0 **** 0.06
15944 H 25.43666503601321 49.878263754843815 70.79872641133673 H 0.0 **** 0.06
15945 H 25.504082895255465 48.84114019437601 69.35363928084452 H 0.0 **** 0.06
15946 C 36.53498276020531 88.97788823268877 84.55969317519012 C 0.0 **** -0.24
15947 H 35.78405650691451 89.53313992159622 83.9977227237355 H 0.0 **** 0.06
15948 H 37.060030559658856 88.29687597249728 83.88919661989817 H 0.0 **** 0.06
15949 H 36.0479031437784 88.40597568242032 85.34945639868454 H 0.0 **** 0.06
15950 H 37.246280699097326 89.67511317226808 85.00096749123674 H 0.0 **** 0.06
15951 C 70.14328851242344 12.63540573666554 72.57793182454841 C 0.0 **** -0.24
15952 H 70.97581497411295 12.215160189075966 73.14262011613661 H 0.0 **** 0.06
15953 H 70.35709595832103 13.675345952799749 72.3349707428001 H 0.0 **** 0.06
15954 H 69.23440513418052 12.580833963056222 73.17829460915439 H 0.0 **** 0.06
15955 H 70.0051549912519 12.06740557526481 71.6581343490532 H 0.0 **** 0.06
15956 C 57.36340463216165 28.148848816860976 122.58492372229381 C 0.0 **** -0.24
15957 H 56.603925694540365 27.928332138849953 123.3350107876841 H 0.0 **** 0.06
15958 H 57.62071203601268 27.234583658810237 122.04886153768376 H 0.0 **** 0.06
15959 H 58.253328687482266 28.54466554290974 123.07493168208288 H 0.0 **** 0.06
15960 H 56.97658987963149 28.88573719177839 121.8817898234932 H 0.0 **** 0.06
15961 C 112.05140294773202 65.88137354577128 86.52741225946176 C 0.0 **** -0.24
15962 H 111.6905780558843 66.59315495748518 85.78473796662655 H 0.0 **** 0.06
15963 H 111.23713636332717 65.22083641644932 86.82399286407518 H 0.0 **** 0.06
15964 H 112.41703288938295 66.42268670960735 87.40048861492765 H 0.0 **** 0.06
15965 H 112.86152397048018 65.29005173581487 86.10062552661452 H 0.0 **** 0.06
15966 C 120.37226556157152 83.2052813507027 101.94427902598031 C 0.0 **** -0.24
15967 H 121.41680470229257 82.93834029627891 101.78091447275824 H 0.0 **** 0.06
15968 H 120.27644723129185 83.73195570419705 102.89406977889773 H 0.0 **** 0.06
15969 H 119.76572719043318 82.29966822793156 101.96812380040369 H 0.0 **** 0.06
15970 H 120.03098967898997 83.8494008827351 101.13504718991794 H 0.0 **** 0.06
15971 C 58.373743706222584 33.02160322236598 113.72273401700254 C 0.0 **** -0.24
15972 H 58.926735549696545 32.54088537952546 112.91593365119029 H 0.0 **** 0.06
15973 H 58.77751550969869 32.69941423183987 114.68250015954636 H 0.0 **** 0.06
15974 H 57.32146747240482 32.740651790534386 113.65901108435229 H 0.0 **** 0.06
15975 H 58.467224219974014 34.10411813619217 113.63323344896934 H 0.0 **** 0.06
15976 C 2.2460868082238896 102.94213043006371 72.96269680066656 C 0.0 **** -0.24
15977 H 1.2918956780216746 102.47136877248883 73.19827097140211 H 0.0 **** 0.06
15978 H 2.3437322120124584 103.04526360044792 71.88146765895824 H 0.0 **** 0.06
15979 H 3.0593891892001785 102.3252156339681 73.34357445256794 H 0.0 **** 0.06
15980 H 2.2893786106969394 103.92763436641943 73.42774771349761 H 0.0 **** 0.06
15981 C 12.287855315329864 91.30060933601885 63.806250453924434 C 0.0 **** -0.24
15982 H 13.309935993350905 91.47131445490557 63.46842903805177 H 0.0 **** 0.06
15983 H 11.645646568028752 91.119113337461 62.94367253257603 H 0.0 **** 0.06
15984 H 11.933191828478726 92.17839238885128 64.34601629837314 H 0.0 **** 0.06
15985 H 12.264775331009162 90.43392508040775 64.46749642239382 H 0.0 **** 0.06
15986 C 70.64755792511338 47.68062223188298 85.36243942537078 C 0.0 **** -0.24
15987 H 70.90903116029483 48.730625075052956 85.23298974434509 H 0.0 **** 0.06
15988 H 70.95604127565053 47.34929125362578 86.35421324051026 H 0.0 **** 0.06
15989 H 71.15755504593022 47.08421964181929 84.60475713299967 H 0.0 **** 0.06
15990 H 69.56981801069736 47.558492648086656 85.25675837885632 H 0.0 **** 0.06
15991 C 83.56450932650668 115.84101432849285 94.60598214145041 C 0.0 **** -0.24
15992 H 82.54010410812633 116.07511862260617 94.89820240369001 H 0.0 **** 0.06
15993 H 83.83662895644363 114.85860567765444 94.99338075245589 H 0.0 **** 0.06
15994 H 84.23891218172922 116.59264721696448 95.01541372363403 H 0.0 **** 0.06
15995 H 83.6397542518864 115.83824321102256 93.51886349205746 H 0.0 **** 0.06
15996 C 43.6061066372516 100.73726113940802 17.87950608552822 C 0.0 **** -0.24
15997 H 42.617013299584414 100.38462361611619 17.58752559728552 H 0.0 **** 0.06
15998 H 44.35722920515431 100.29387295189298 17.22492504603477 H 0.0 **** 0.06
15999 H 43.805950168570945 100.44671140260408 18.911499764704843 H 0.0 **** 0.06
16000 H 43.64484609846406 101.82262587561053 17.793674593297027 H 0.0 **** 0.06
16001 C 62.36228806778389 86.28657021789026 91.76005576331929 C 0.0 **** -0.24
16002 H 61.31118616248244 86.56762987378454 91.82248734227527 H 0.0 **** 0.06
16003 H 62.799296440575205 86.29378085743538 92.75936764914833 H 0.0 **** 0.06
16004 H 62.8912021986269 86.99815575908876 91.12634659784419 H 0.0 **** 0.06
16005 H 62.44583829994899 85.28702030702864 91.33352229574531 H 0.0 **** 0.06
16006 C 30.239539261474988 26.75828569332515 56.567996092710075 C 0.0 **** -0.24
16007 H 30.67884256675103 26.426121745659202 57.507656715311555 H 0.0 **** 0.06
16008 H 30.820807094234 27.591111511610734 56.1695987414073 H 0.0 **** 0.06
16009 H 29.213047595312332 27.081822773065312 56.74010966097387 H 0.0 **** 0.06
16010 H 30.24582896515608 25.935629630850144 55.85275282820112 H 0.0 **** 0.06
16011 C 28.911033690732097 39.664544455228445 96.67624651944709 C 0.0 **** -0.24
16012 H 29.020211060745595 39.304914665781304 95.65294050305182 H 0.0 **** 0.06
16013 H 27.86237879406721 39.60904491540834 96.97017718674526 H 0.0 **** 0.06
16014 H 29.251648198481767 40.698096993770264 96.73589851296137 H 0.0 **** 0.06
16015 H 29.509121577001928 39.0450125936913 97.34418933036316 H 0.0 **** 0.06
16016 C 64.86395543182525 67.08815640514135 25.75919818431194 C 0.0 **** -0.24
16017 H 64.08967670378377 66.32372772129727 25.702456215917238 H 0.0 **** 0.06
16018 H 64.45942577052007 68.04085220546881 25.416856315036853 H 0.0 **** 0.06
16019 H 65.70468267160113 66.80198860824434 25.12654170689254 H 0.0 **** 0.06
16020 H 65.20298623124009 67.18651273825743 26.789994752778682 H 0.0 **** 0.06
16021 C 104.40848292327769 42.59551755372746 8.481632780999064 C 0.0 **** -0.24
16022 H 104.22504367753946 43.564609650112004 8.016120053770294 H 0.0 **** 0.06
16023 H 104.64367933517444 42.739408410584076 9.536814098611899 H 0.0 **** 0.06
16024 H 105.247585938885 42.10736501648938 7.985220916812125 H 0.0 **** 0.06
16025 H 103.51847458964953 41.97367115029135 8.388984810288832 H 0.0 **** 0.06
16026 C 119.95715893208123 121.30600151379907 113.02398762084053 C 0.0 **** -0.24
16027 H 119.5584360269487 122.31514826125175 113.13323698357962 H 0.0 **** 0.06
16028 H 121.04416865362009 121.33577294669578 113.09968440104498 H 0.0 **** 0.06
16029 H 119.66988584457005 120.90591605368022 112.05136369824575 H 0.0 **** 0.06
16030 H 119.55470425895379 120.66973571665162 113.8122442693419 H 0.0 **** 0.06
16031 C 55.4745055735286 119.22126133860718 74.98251801207448 C 0.0 **** -0.24
16032 H 55.11257703752696 120.10579337055026 75.5067186349554 H 0.0 **** 0.06
16033 H 56.44221499717804 119.4386729212747 74.53041830412616 H 0.0 **** 0.06
16034 H 54.76276669931491 118.94362618961094 74.20513138885099 H 0.0 **** 0.06
16035 H 55.57994137680669 118.39886275990972 75.6904645984198 H 0.0 **** 0.06
16036 C 117.00126277954759 79.30087258549742 56.44070458165437 C 0.0 **** -0.24
16037 H 117.09477148052568 78.28594210267832 56.82775721046674 H 0.0 **** 0.06
16038 H 117.41900475078086 79.34510192991902 55.434366198910666 H 0.0 **** 0.06
16039 H 117.54389457763557 79.98828929491097 57.089895992476684 H 0.0 **** 0.06
16040 H 115.94863559105578 79.58240585975878 56.41020059001863 H 0.0 **** 0.06
16041 C 48.40056592318375 28.496463481530178 20.801380836376893 C 0.0 **** -0.24
16042 H 47.395605518484636 28.075697587125696 20.768122508813008 H 0.0 **** 0.06
16043 H 48.78323308901203 28.442202521942193 21.82106368691639 H 0.0 **** 0.06
16044 H 48.36966358026248 29.537003586083728 20.480348549112904 H 0.0 **** 0.06
16045 H 49.053057725293655 27.92991058641106 20.13663971144703 H 0.0 **** 0.06
16046 C 3.7158300483554285 58.90008276313472 45.72988349643134 C 0.0 **** -0.24
16047 H 3.3149888146611772 59.67758148880239 46.380653454933906 H 0.0 **** 0.06
16048 H 3.6943473208119713 59.24580632720841 44.69608360557379 H 0.0 **** 0.06
16049 H 3.109426855658313 57.998951491663206 45.82405938884369 H 0.0 **** 0.06
16050 H 4.743807407672193 58.678831939428335 46.017881970465396 H 0.0 **** 0.06
16051 C 92.04601221155286 66.65412734976061 7.804975431727655 C 0.0 **** -0.24
16052 H 91.96312371828463 67.5436180536359 7.179626479309718 H 0.0 **** 0.06
16053 H 93.07793369794473 66.30489847431542 7.8057732849335935 H 0.0 **** 0.06
16054 H 91.39617305869862 65.87168691912282 7.411351762978029 H 0.0 **** 0.06
16055 H 91.74350346047427 66.89785541644699 8.823932062495658 H 0.0 **** 0.06
16056 C 72.80114314340994 112.60874485478388 109.51613459968115 C 0.0 **** -0.24
16057 H 71.96899315241359 113.02535314030138 110.08246429497382 H 0.0 **** 0.06
16058 H 72.54922753501145 111.5998097273843 109.18898948932934 H 0.0 **** 0.06
16059 H 73.68951295938655 112.5749584431004 110.14721307821873 H 0.0 **** 0.06
16060 H 72.9978963971243 113.23444426000765 108.64456361649144 H 0.0 **** 0.06
16061 C 41.12333673709577 22.27638070014467 62.90145600353961 C 0.0 **** -0.24
16062 H 40.621339761826704 23.145625842444645 62.47600516419581 H 0.0 **** 0.06
16063 H 40.80714082912928 21.378716585920927 62.36912263561186 H 0.0 **** 0.06
16064 H 40.8621317030813 22.185637598271512 63.95590993916457 H 0.0 **** 0.06
16065 H 42.20222649206025 22.396458567569766 62.803406687940026 H 0.0 **** 0.06
16066 C 60.12758640886291 111.13390738950686 102.0363467343461 C 0.0 **** -0.24
16067 H 59.33437308090852 110.50541719672445 101.62987381200497 H 0.0 **** 0.06
16068 H 60.28969998182775 110.88076993179534 103.0842489752698 H 0.0 **** 0.06
16069 H 59.838394222785865 112.18102686406806 101.95572371890671 H 0.0 **** 0.06
16070 H 61.047075083090334 110.96575574922129 101.47501072594243 H 0.0 **** 0.06
16071 C 115.89678660141169 80.34988496306275 114.2869579719112 C 0.0 **** -0.24
16072 H 115.12399626423712 80.77512907289153 113.64541132797088 H 0.0 **** 0.06
16073 H 115.46089102152393 80.07434173402983 115.24656537484962 H 0.0 **** 0.06
16074 H 116.68409558460809 81.08777610026267 114.44309809723278 H 0.0 **** 0.06
16075 H 116.31785739691247 79.46505569436157 113.80971168995335 H 0.0 **** 0.06
16076 C 65.3105626912519 25.94676332446133 81.36079634650247 C 0.0 **** -0.24
16077 H 64.39623760121991 25.835480115511388 81.94447108454881 H 0.0 **** 0.06
16078 H 65.1187979634102 26.599901386981855 80.50923633492863 H 0.0 **** 0.06
16079 H 65.63498435452499 24.969620769294693 81.0042161580439 H 0.0 **** 0.06
16080 H 66.08963424412897 26.383440111054483 81.98583505006235 H 0.0 **** 0.06
16081 C 128.34673332406936 108.81292734880743 128.5106801365428 C 0.0 **** -0.24
16082 H 128.9236895246435 109.69884234319743 128.247295287617 H 0.0 **** 0.06
16083 H 127.37317004494024 109.11437661498893 128.8975294158748 H 0.0 **** 0.06
16084 H 128.8804112285676 108.24456017483145 129.27259163664903 H 0.0 **** 0.06
16085 H 128.2094509681666 108.1927795784624 127.62402696297093 H 0.0 **** 0.06
16086 C 9.096665067396714 119.97063603813368 117.87911660371216 C 0.0 **** -0.24
16087 H 8.697561601034522 120.83681136335656 118.40781051550073 H 0.0 **** 0.06
16088 H 10.05708763217433 119.69235037345763 118.31273053666605 H 0.0 **** 0.06
16089 H 9.229524812597674 120.2179585681925 116.82588143286394 H 0.0 **** 0.06
16090 H 8.399777747390544 119.13712268338111 117.97198786800557 H 0.0 **** 0.06
16091 C 22.450962965737517 63.165466320206704 23.99404129984586 C 0.0 **** -0.24
16092 H 22.520352463350548 63.433096637653094 22.93930122473077 H 0.0 **** 0.06
16093 H 21.422435433954206 62.89866666291948 24.23413596913562 H 0.0 **** 0.06
16094 H 22.759011506253046 64.01498025016606 24.604409799958972 H 0.0 **** 0.06
16095 H 23.10453070662146 62.317014271777396 24.19680915021928 H 0.0 **** 0.06
16096 C 89.3906094415164 63.72475364327934 70.03763371985588 C 0.0 **** -0.24
16097 H 90.08979568328073 64.47146015780712 69.66060921557587 H 0.0 **** 0.06
16098 H 88.53814036710708 63.65255384858696 69.36234183694245 H 0.0 **** 0.06
16099 H 89.04667390615191 64.017679315381 71.02947814001482 H 0.0 **** 0.06
16100 H 89.89075608871212 62.75731710753075 70.09625478569686 H 0.0 **** 0.06
16101 C 87.42295991006299 26.6154390384373 55.57502511678835 C 0.0 **** -0.24
16102 H 87.33340062302369 27.64283094350668 55.22269933857899 H 0.0 **** 0.06
16103 H 88.1708137685053 26.566656202637546 56.36720336254041 H 0.0 **** 0.06
16104 H 87.72726062454382 25.973422975958982 54.74924134242109 H 0.0 **** 0.06
16105 H 86.46081084454369 26.279066542268566 55.96182378651315 H 0.0 **** 0.06
16106 C 105.54994574546203 101.4213309770611 101.1235930663101 C 0.0 **** -0.24
16107 H 105.77289912344412 101.26945401031537 100.06773435395633 H 0.0 **** 0.06
16108 H 106.47989511468785 101.44734440458936 101.69130507414789 H 0.0 **** 0.06
16109 H 104.92630728231336 100.60355130140701 101.48525583826068 H 0.0 **** 0.06
16110 H 105.01970997815658 102.36509389833301 101.25028180763854 H 0.0 **** 0.06
16111 C 117.58466648629246 73.51282730441804 120.05766375647954 C 0.0 **** -0.24
16112 H 117.63692153598788 72.72548310894666 119.30534199900083 H 0.0 **** 0.06
16113 H 118.2762689558258 74.31291413615536 119.79331820936366 H 0.0 **** 0.06
16114 H 117.85566038217371 73.10393637869409 121.03102236785244 H 0.0 **** 0.06
16115 H 116.56979293473805 73.908180496304 120.09888256703104 H 0.0 **** 0.06
16116 C 60.90517856692958 104.3805357073702 105.2205516526568 C 0.0 **** -0.24
16117 H 59.99090699710523 104.01936165798132 105.69287711948095 H 0.0 **** 0.06
16118 H 60.649849168065415 105.09164795883686 104.43533213133159 H 0.0 **** 0.06
16119 H 61.44738249899781 103.53986249741152 104.78828218789968 H 0.0 **** 0.06
16120 H 61.52987676148126 104.87050662222269 105.96677955759515 H 0.0 **** 0.06
16121 C 103.30866280894276 103.08626260809942 61.5103917100588 C 0.0 **** -0.24
16122 H 102.44501295910533 102.50702934069055 61.18257274896138 H 0.0 **** 0.06
16123 H 104.19909438967159 102.73851897436833 60.98656211957086 H 0.0 **** 0.06
16124 H 103.44402631577344 102.95847471627432 62.58371708747836 H 0.0 **** 0.06
16125 H 103.14313981848227 104.14111306316205 61.28745624377399 H 0.0 **** 0.06
16126 C 94.97778805758207 0.7606572354371792 125.74601563639735 C 0.0 **** -0.24
16127 H 95.50898705267178 1.6787999777330924 125.99623150966855 H 0.0 **** 0.06
16128 H 93.9950698471841 0.7691170144285024 126.216583136884 H 0.0 **** 0.06
16129 H 95.54641517736134 -0.09708698553694717 126.10635792476072 H 0.0 **** 0.06
16130 H 94.86362848268257 0.691817111321285 124.66433542409231 H 0.0 **** 0.06
16131 C 100.40955549138117 0.2308271623291489 6.357145292604045 C 0.0 **** -0.24
16132 H 101.07651102981694 -0.49533820375171445 5.8926933284333245 H 0.0 **** 0.06
16133 H 100.8905552393141 0.6530444655309111 7.2392967791317915 H 0.0 **** 0.06
16134 H 99.4831141326447 -0.26374946955405676 6.650005097330386 H 0.0 **** 0.06
16135 H 100.18781971310848 1.0276350564910786 5.6466455124782975 H 0.0 **** 0.06
16136 C 56.53877883653067 58.283654307141774 60.534736710202765 C 0.0 **** -0.24
16137 H 55.558924865255875 58.212115020397846 61.007882407430145 H 0.0 **** 0.06
16138 H 57.149615927272166 59.00882451724539 61.07218035365605 H 0.0 **** 0.06
16139 H 56.418220951038364 58.60512366640165 59.49990640855532 H 0.0 **** 0.06
16140 H 57.02561812795426 57.309336333986266 60.55802600203236 H 0.0 **** 0.06
16141 C 79.51121736361381 99.01991618610515 118.19089045241104 C 0.0 **** -0.24
16142 H 78.56017870047077 98.80038583059991 117.70590040960951 H 0.0 **** 0.06
16143 H 79.61568858297206 98.4010982049889 119.08211968346983 H 0.0 **** 0.06
16144 H 79.54060285826331 100.0726242275058 118.47312931628014 H 0.0 **** 0.06
16145 H 80.32839931274899 98.80555648132628 117.50241240028464 H 0.0 **** 0.06
16146 C 32.03150996529831 87.3739330385014 22.806498608055335 C 0.0 **** -0.24
16147 H 31.078257244612303 87.88149816254266 22.66372856095694 H 0.0 **** 0.06
16148 H 32.04945690363854 86.45982511005167 22.212949049400663 H 0.0 **** 0.06
16149 H 32.155208362611916 87.12470786576274 23.86099330246502 H 0.0 **** 0.06
16150 H 32.84317474193972 88.02875723696555 22.490349912190368 H 0.0 **** 0.06
16151 C 9.424055073251111 89.87268057506903 112.01289792286718 C 0.0 **** -0.24
16152 H 9.840623634273257 90.7180984510197 111.46547148090934 H 0.0 **** 0.06
16153 H 8.562773971664882 90.20518346034243 112.59274634454471 H 0.0 **** 0.06
16154 H 10.180435140641805 89.46697233675468 112.68421785276189 H 0.0 **** 0.06
16155 H 9.112506219349868 89.10182664478687 111.30738388951153 H 0.0 **** 0.06
16156 C 12.442839427163271 92.51520888340278 117.00693763134214 C 0.0 **** -0.24
16157 H 12.072416032182506 91.84027924118334 116.23498362548955 H 0.0 **** 0.06
16158 H 13.529981668495651 92.57908339689206 116.9414977130327 H 0.0 **** 0.06
16159 H 12.159608228612989 92.13385340940388 117.98746580711381 H 0.0 **** 0.06
16160 H 12.010557461654766 93.50537519386 116.86221908621445 H 0.0 **** 0.06
16161 C 99.87287661415027 84.89712810296967 120.58016561067186 C 0.0 **** -0.24
16162 H 99.91495319647487 84.29310106608375 121.48565789772314 H 0.0 **** 0.06
16163 H 100.77527169273935 84.73241116677815 119.99057763892189 H 0.0 **** 0.06
16164 H 99.80111156785176 85.95155286975441 120.84876701658143 H 0.0 **** 0.06
16165 H 98.99851313455059 84.61167751786016 119.99387043755597 H 0.0 **** 0.06
16166 C 88.34242725198264 114.06527622911608 121.87437148503041 C 0.0 **** -0.24
16167 H 88.39388180428051 113.04263629409292 121.50169814479493 H 0.0 **** 0.06
16168 H 87.3427197621659 114.4644146947856 121.70283171565922 H 0.0 **** 0.06
16169 H 89.0752281508151 114.67948378989593 121.35087516655597 H 0.0 **** 0.06
16170 H 88.55862092159822 114.07249556155591 122.94246353195021 H 0.0 **** 0.06
16171 C 45.19131901239376 101.13554988293406 111.53950090652891 C 0.0 **** -0.24
16172 H 44.528528115833865 100.61318299125821 112.23005834757079 H 0.0 **** 0.06
16173 H 44.6341657282551 101.9156001894397 111.02183968712755 H 0.0 **** 0.06
16174 H 45.58680702533921 100.42635405417568 110.81129553408186 H 0.0 **** 0.06
16175 H 46.01442015796559 101.5837433351416 112.0944238769122 H 0.0 **** 0.06
16176 C 35.99250298330662 34.0058656384854 19.000125746952904 C 0.0 **** -0.24
16177 H 36.50212542710733 33.050108335381395 18.873395813431273 H 0.0 **** 0.06
16178 H 36.39415672833945 34.7285193091769 18.28957847238547 H 0.0 **** 0.06
16179 H 36.14801160218735 34.36914753874481 20.015841152494403 H 0.0 **** 0.06
16180 H 34.925461765741375 33.87459173844772 18.820830837186634 H 0.0 **** 0.06
16181 C 6.303635216930047 93.27201914676235 123.34871553683448 C 0.0 **** -0.24
16182 H 5.224939891714939 93.33806231922247 123.21356355356386 H 0.0 **** 0.06
16183 H 6.778690756170477 93.07310855840518 122.38684474882555 H 0.0 **** 0.06
16184 H 6.53485433519262 92.46408332204331 124.04241277265606 H 0.0 **** 0.06
16185 H 6.677255057018215 94.21403653740654 123.75059604458752 H 0.0 **** 0.06
16186 C 47.155724047109835 10.473779313891246 34.86889509573376 C 0.0 **** -0.24
16187 H 47.92528790710946 9.953761599531571 35.4392007157345 H 0.0 **** 0.06
16188 H 46.75401422092267 9.805769885764917 34.10755677338952 H 0.0 **** 0.06
16189 H 47.5900419644204 11.351804517394552 34.39090434831414 H 0.0 **** 0.06
16190 H 46.3549542434661 10.784524105412107 35.54026004077704 H 0.0 **** 0.06
16191 C 121.52980507423037 111.50533068297096 29.71548350151511 C 0.0 **** -0.24
16192 H 121.57425424958362 110.90114604024407 30.620889810146494 H 0.0 **** 0.06
16193 H 122.36096961704168 111.24251858881837 29.06110457736304 H 0.0 **** 0.06
16194 H 121.59598020028719 112.56115541898188 29.98048448285867 H 0.0 **** 0.06
16195 H 120.58793959297135 111.31821019237799 29.199735687297164 H 0.0 **** 0.06
16196 C 120.75187813239702 49.01126340299834 128.59561656872097 C 0.0 **** -0.24
16197 H 120.06601198540582 48.55953282513457 127.87773936529003 H 0.0 **** 0.06
16198 H 121.22594637287139 49.88311652286285 128.14413130400467 H 0.0 **** 0.06
16199 H 121.51498472449816 48.285511555390826 128.8748655513362 H 0.0 **** 0.06
16200 H 120.19846395822648 49.31710383005361 129.4831760454456 H 0.0 **** 0.06
16201 C 123.95102001522491 36.80244943755072 88.27045103392838 C 0.0 **** -0.24
16202 H 124.76719870206526 37.488917024824225 88.04128477740386 H 0.0 **** 0.06
16203 H 124.36111987848194 35.85039031550052 88.6063869854208 H 0.0 **** 0.06
16204 H 123.34950411934832 36.643199884084886 87.37526686256416 H 0.0 **** 0.06
16205 H 123.32842748294166 37.22950685011407 89.05677284203507 H 0.0 **** 0.06
16206 C 51.581857082750275 4.452889618955538 106.60915862096098 C 0.0 **** -0.24
16207 H 51.416219607335506 5.292291897425898 107.28541048306633 H 0.0 **** 0.06
16208 H 52.191289887178925 4.779375604316812 105.76704878570396 H 0.0 **** 0.06
16209 H 50.621664443134705 4.087455198274242 106.24388571569375 H 0.0 **** 0.06
16210 H 52.09548429626466 3.6531374816044604 107.1422477747661 H 0.0 **** 0.06
16211 C 37.41329569585878 130.32289102032246 69.16966611361921 C 0.0 **** -0.24
16212 H 37.845069709047095 129.58376360743907 69.84504332806364 H 0.0 **** 0.06
16213 H 38.13541212975224 130.5690491157584 68.39146980710383 H 0.0 **** 0.06
16214 H 37.16153904879383 131.22326832581442 69.73037262120238 H 0.0 **** 0.06
16215 H 36.51136348050426 129.91453057045587 68.71402647830007 H 0.0 **** 0.06
16216 C 106.0006899785954 40.824090008884774 17.46885234372065 C 0.0 **** -0.24
16217 H 105.28325597125325 41.353323953262674 18.09514882930216 H 0.0 **** 0.06
16218 H 105.55226655462769 39.90017667579099 17.103600299571006 H 0.0 **** 0.06
16219 H 106.8890123054224 40.588911642597694 18.054683396621186 H 0.0 **** 0.06
16220 H 106.27872401308798 41.45246231329493 16.62357208765477 H 0.0 **** 0.06
16221 C 83.14053286247434 87.86152391434369 16.54984509642634 C 0.0 **** -0.24
16222 H 82.28998165691144 88.46945662112773 16.859853156914767 H 0.0 **** 0.06
16223 H 83.05726096565 86.86920933397084 16.992899296485405 H 0.0 **** 0.06
16224 H 84.06460118576733 88.33246785832776 16.88374620989555 H 0.0 **** 0.06
16225 H 83.14826507436126 87.77593530696788 15.463862501353049 H 0.0 **** 0.06
16226 C 84.22365472198396 2.0921979731953684 48.54368202647555 C 0.0 **** -0.24
16227 H 84.90347133821105 2.9389844833605707 48.44187571114827 H 0.0 **** 0.06
16228 H 83.48289123331593 2.1231749426480064 47.74376801109821 H 0.0 **** 0.06
16229 H 83.71968983070431 2.145470319621893 49.508128423150936 H 0.0 **** 0.06
16230 H 84.78876828583174 1.1630871633230413 48.47945465269504 H 0.0 **** 0.06
16231 C 66.7372327641409 34.195545123122564 27.36306420630291 C 0.0 **** -0.24
16232 H 67.03238275260543 33.4840685758862 28.13479221538259 H 0.0 **** 0.06
16233 H 65.67823636632922 34.43165967237523 27.47472488697335 H 0.0 **** 0.06
16234 H 66.91052760724213 33.757688169414166 26.379591937506717 H 0.0 **** 0.06
16235 H 67.32600300260134 35.10675650227312 27.46448831783806 H 0.0 **** 0.06
16236 C 123.21350239315035 101.13710960387695 8.702359149400603 C 0.0 **** -0.24
16237 H 122.96946747708542 101.06894442066559 7.642353054623314 H 0.0 **** 0.06
16238 H 122.63022428636643 100.40104824104722 9.256734346093786 H 0.0 **** 0.06
16239 H 122.9759450558402 102.13736565639724 9.065367200433126 H 0.0 **** 0.06
16240 H 124.27625395305162 100.94162822678973 8.844523172539063 H 0.0 **** 0.06
16241 C 50.024560843256154 97.41206741415466 112.12809609517609 C 0.0 **** -0.24
16242 H 50.0034298533846 97.71969697803746 111.08293344482149 H 0.0 **** 0.06
16243 H 49.022175871834406 97.11932208545137 112.44029475363743 H 0.0 **** 0.06
16244 H 50.36941426183688 98.24250595483284 112.74391457631168 H 0.0 **** 0.06
16245 H 50.70315361694378 96.56666439801226 112.24424724697994 H 0.0 **** 0.06
16246 C 114.08169466809905 7.704816339634533 112.47033688145751 C 0.0 **** -0.24
16247 H 113.66010896781582 6.700759624557463 112.51782457278449 H 0.0 **** 0.06
16248 H 115.04539749756471 7.670458365522194 111.96123285375401 H 0.0 **** 0.06
16249 H 114.2181496999573 8.089148025844366 113.48157112482212 H 0.0 **** 0.06
16250 H 113.40277613930282 8.358499251453964 111.9215675099079 H 0.0 **** 0.06
16251 C 103.1219173359513 66.63053849700357 54.76133247634938 C 0.0 **** -0.24
16252 H 103.3519241535884 65.70078057793198 55.28220729509363 H 0.0 **** 0.06
16253 H 104.04722655549848 67.16914028873131 54.55486583638658 H 0.0 **** 0.06
16254 H 102.47455950334549 67.24543623464619 55.386731620300125 H 0.0 **** 0.06
16255 H 102.6147444619383 66.40589158193711 53.82366150912951 H 0.0 **** 0.06
16256 C 91.2162213714339 61.70553471870899 113.59853818140421 C 0.0 **** -0.24
16257 H 91.32604461415531 60.6308031914098 113.7384609817985 H 0.0 **** 0.06
16258 H 90.63422504172297 61.89688044418655 112.6967756972041 H 0.0 **** 0.06
16259 H 92.20064739299892 62.161892995477714 113.49969514224175 H 0.0 **** 0.06
16260 H 90.70192945708442 62.132336685365004 114.46011082832159 H 0.0 **** 0.06
16261 C 57.855393738729774 37.17895778458622 82.47545125720154 C 0.0 **** -0.24
16262 H 58.40357992162414 37.640991461169634 83.29715942981639 H 0.0 **** 0.06
16263 H 57.834668004992665 37.860376550071784 81.62443866684383 H 0.0 **** 0.06
16264 H 56.8360382310931 36.96437296071755 82.79605406718959 H 0.0 **** 0.06
16265 H 58.3490241393381 36.250982884082624 82.18620032445575 H 0.0 **** 0.06
16266 C 35.869635827889226 95.26820976101479 47.37964367219149 C 0.0 **** -0.24
16267 H 35.38004001190433 94.32988052720495 47.11823464811846 H 0.0 **** 0.06
16268 H 35.456608291165594 95.64451638509507 48.31575588273256 H 0.0 **** 0.06
16269 H 35.70133392486662 95.99795834899459 46.58873985915301 H 0.0 **** 0.06
16270 H 36.940747659191686 95.09891038932375 47.4965441490919 H 0.0 **** 0.06
16271 C 63.45806047712395 102.9095042980893 83.45286220022203 C 0.0 **** -0.24
16272 H 63.23245089225371 103.83639368535755 83.98001762154365 H 0.0 **** 0.06
16273 H 63.531504100301134 103.10875473874583 82.38363548007338 H 0.0 **** 0.06
16274 H 62.66250055099832 102.1856893126604 83.63476558592595 H 0.0 **** 0.06
16275 H 64.40417292086777 102.50629802528367 83.81430296784248 H 0.0 **** 0.06
16276 C 103.66694515723046 29.539486980418538 66.9779742385029 C 0.0 **** -0.24
16277 H 102.98533775334133 28.702233827313115 66.82729914297624 H 0.0 **** 0.06
16278 H 103.17485673182162 30.46633148237271 66.68060442605093 H 0.0 **** 0.06
16279 H 104.56194674520029 29.39286434768986 66.37264335522099 H 0.0 **** 0.06
16280 H 103.9451703341808 29.59649523864789 68.03046713431166 H 0.0 **** 0.06
16281 C 13.045370168105478 87.69874751095466 24.795215708165415 C 0.0 **** -0.24
16282 H 12.374849152838465 88.2345733486458 25.467924986642657 H 0.0 **** 0.06
16283 H 12.521049337788156 87.4656173372826 23.86912748802908 H 0.0 **** 0.06
16284 H 13.374020523592947 86.77392952281758 25.27026218037571 H 0.0 **** 0.06
16285 H 13.912496451942218 88.322376571695 24.57491059647836 H 0.0 **** 0.06
16286 C 42.85692811916877 73.9018962297617 69.49955641419572 C 0.0 **** -0.24
16287 H 43.257766693637336 73.09345617652109 68.8888121634688 H 0.0 **** 0.06
16288 H 43.1207617992674 74.8605712048038 69.05178570217598 H 0.0 **** 0.06
16289 H 43.27585185581026 73.84082514860272 70.50442593070119 H 0.0 **** 0.06
16290 H 41.7714091850296 73.81167832579881 69.55211026678671 H 0.0 **** 0.06
16291 C 86.91286165322288 105.92979762166235 2.9020230213080254 C 0.0 **** -0.24
16292 H 87.48498696480908 106.71366395289161 3.39841064835565 H 0.0 **** 0.06
16293 H 86.00197024697295 106.35651758261395 2.482493076362317 H 0.0 **** 0.06
16294 H 86.65359969924003 105.15724283459137 3.6246153706015605 H 0.0 **** 0.06
16295 H 87.51170122553151 105.49384254712766 2.1027466135235215 H 0.0 **** 0.06
16296 C 97.39566487501571 9.27666210356341 48.99703032381062 C 0.0 **** -0.24
16297 H 98.34401949877599 9.07860063241219 49.497267939641446 H 0.0 **** 0.06
16298 H 97.43169372396221 10.258297505090695 48.524154702338365 H 0.0 **** 0.06
16299 H 96.58808926943692 9.254440089209652 49.728276009801334 H 0.0 **** 0.06
16300 H 97.22038483976462 8.51368655865815 48.2382499044893 H 0.0 **** 0.06
16301 C 9.996855948527468 98.15865076097398 69.72994484290237 C 0.0 **** -0.24
16302 H 10.642134888939609 97.45027500513422 70.25036332680486 H 0.0 **** 0.06
16303 H 9.462781508983142 98.76714472891794 70.45995585050431 H 0.0 **** 0.06
16304 H 9.280733151450306 97.61454999948884 69.11494166016001 H 0.0 **** 0.06
16305 H 10.60514889832524 98.80415462178172 69.09506452680284 H 0.0 **** 0.06
16306 C 70.05044090932103 33.01379575823378 126.36178397653795 C 0.0 **** -0.24
16307 H 69.55901019924391 33.16392950418225 125.40014775449168 H 0.0 **** 0.06
16308 H 69.38037750422637 32.47327252766263 127.03144375843611 H 0.0 **** 0.06
16309 H 70.29776489106101 33.98178482395559 126.79778913231061 H 0.0 **** 0.06
16310 H 70.96400731287886 32.437037751380444 126.2163669414707 H 0.0 **** 0.06
16311 C 83.13265292500385 98.6491952217182 107.95077039897654 C 0.0 **** -0.24
16312 H 83.84623397152025 98.55551291238112 107.13277887844333 H 0.0 **** 0.06
16313 H 83.1448517812929 99.67198885233023 108.32940073511259 H 0.0 **** 0.06
16314 H 83.40465268402104 97.96130114307579 108.75143096686978 H 0.0 **** 0.06
16315 H 82.13265751980734 98.40790410692637 107.58976308388054 H 0.0 **** 0.06
16316 C 13.378011772835968 29.52925679155708 6.991388860684584 C 0.0 **** -0.24
16317 H 12.648997252007373 28.920019932127758 6.458363841221587 H 0.0 **** 0.06
16318 H 13.33992015540312 30.552762965379856 6.617045877576938 H 0.0 **** 0.06
16319 H 14.376882674831219 29.12159699184005 6.833531582642873 H 0.0 **** 0.06
16320 H 13.147628426465424 29.52238172886605 8.056760025560603 H 0.0 **** 0.06
16321 C 5.6812541202846205 3.332501819660539 17.69926056417819 C 0.0 **** -0.24
16322 H 6.726760070936706 3.277808732016851 18.001449914160418 H 0.0 **** 0.06
16323 H 5.548358717642884 2.8073410803717778 16.75312235589618 H 0.0 **** 0.06
16324 H 5.391901593972619 4.376752216183171 17.579997361154682 H 0.0 **** 0.06
16325 H 5.0579009933881025 2.8679693463436173 18.46345880049978 H 0.0 **** 0.06
16326 C 1.9864931053910198 47.57953139937837 18.36343475805728 C 0.0 **** -0.24
16327 H 1.2051811195729556 47.66387740743012 17.60798468649358 H 0.0 **** 0.06
16328 H 2.282053325105096 48.57543048270763 18.692525333269828 H 0.0 **** 0.06
16329 H 2.848994164824745 47.066768120053496 17.937641130470638 H 0.0 **** 0.06
16330 H 1.6095263334224512 47.011956205588106 19.21461626538195 H 0.0 **** 0.06
16331 C 58.257159923630525 16.064396425409797 118.42833661502546 C 0.0 **** -0.24
16332 H 58.0246444937934 15.241652404689205 119.10545137384098 H 0.0 **** 0.06
16333 H 58.00904551945922 17.01079753891773 118.91026578218333 H 0.0 **** 0.06
16334 H 57.674488274891814 15.957609671169166 117.51440078498139 H 0.0 **** 0.06
16335 H 59.319936679614045 16.046740032095244 118.18684895595062 H 0.0 **** 0.06
16336 C 46.29171376821256 118.4853579044773 40.6208021593413 C 0.0 **** -0.24
16337 H 47.22906748419979 118.05481181622031 40.26813579868895 H 0.0 **** 0.06
16338 H 46.209704103653394 118.34531549433419 41.69895105617239 H 0.0 **** 0.06
16339 H 45.456043662774334 117.990292638731 40.125090159691645 H 0.0 **** 0.06
16340 H 46.27118333866258 119.55051955778109 40.390019508822704 H 0.0 **** 0.06
16341 C 3.3596066099834125 75.99301909043038 2.1532728245571455 C 0.0 **** -0.24
16342 H 2.6728797815747356 75.2847282436361 1.6892180455710424 H 0.0 **** 0.06
16343 H 3.7499387388443495 76.67083088589499 1.3943337950434938 H 0.0 **** 0.06
16344 H 4.184167947630225 75.44981743319295 2.615365944928989 H 0.0 **** 0.06
16345 H 2.8300045770508113 76.56662250182598 2.9151398638982613 H 0.0 **** 0.06
16346 C 63.99206130285684 43.032795238731836 20.881496673847778 C 0.0 **** -0.24
16347 H 63.41587488410339 43.56836069956094 20.12656399235783 H 0.0 **** 0.06
16348 H 64.97478978157142 42.783931193871865 20.479511649426854 H 0.0 **** 0.06
16349 H 63.46857684776596 42.117283154895546 21.15555702267534 H 0.0 **** 0.06
16350 H 64.10867848854265 43.66220143780018 21.7631131871438 H 0.0 **** 0.06
16351 C 27.493103223845168 85.80053729345761 120.53271299164923 C 0.0 **** -0.24
16352 H 27.899147596510062 85.69000828043568 119.52627974481865 H 0.0 **** 0.06
16353 H 26.406038771510566 85.72588415101283 120.4965428140508 H 0.0 **** 0.06
16354 H 27.778751488138084 86.77254158332362 120.93395501207559 H 0.0 **** 0.06
16355 H 27.89091229002895 85.01195708126455 121.17208198547466 H 0.0 **** 0.06
16356 C 25.324244320846788 110.43220352116614 19.305756022487515 C 0.0 **** -0.24
16357 H 25.968901792598842 111.02064468675006 19.959723367002226 H 0.0 **** 0.06
16358 H 24.62089907011824 109.85943394862119 19.90966819265762 H 0.0 **** 0.06
16359 H 25.934354055083617 109.7502989050822 18.713218522367328 H 0.0 **** 0.06
16360 H 24.77550732431129 111.09945484214487 18.641282667526724 H 0.0 **** 0.06
16361 C 9.1780296317269 21.262165394244875 10.396434286881856 C 0.0 **** -0.24
16362 H 9.201073255706575 21.888594905736994 11.288474398376309 H 0.0 **** 0.06
16363 H 8.361917244684463 20.543813274296866 10.478734435941703 H 0.0 **** 0.06
16364 H 10.12347598098549 20.728293907866743 10.302979059926315 H 0.0 **** 0.06
16365 H 9.02465118103268 21.888168045052367 9.518186528819626 H 0.0 **** 0.06
16366 C 63.937137211806714 54.20188243209782 58.58814379892476 C 0.0 **** -0.24
16367 H 63.70114523285709 54.67347980144824 59.542443130814775 H 0.0 **** 0.06
16368 H 64.91128718817043 53.71689519447372 58.654194515931295 H 0.0 **** 0.06
16369 H 63.960561430499325 54.96012272059693 57.80465448224953 H 0.0 **** 0.06
16370 H 63.17552003520315 53.459100298410746 58.35213233009301 H 0.0 **** 0.06
16371 C 3.478529271583902 66.6843341966333 130.00544944701377 C 0.0 **** -0.24
16372 H 2.423402194710196 66.6237992232978 129.74086151336616 H 0.0 **** 0.06
16373 H 3.872603970939142 65.67927776272148 130.15817862690508 H 0.0 **** 0.06
16374 H 3.5900655116410007 67.26260187282975 130.92212309491305 H 0.0 **** 0.06
16375 H 4.0273400265892505 67.17186541521738 129.19995673249431 H 0.0 **** 0.06
16376 C 39.2554568688889 63.81074813395459 52.095346930689885 C 0.0 **** -0.24
16377 H 39.26937833127643 64.26046256317669 51.10260548025484 H 0.0 **** 0.06
16378 H 39.8215631395405 64.43672292913031 52.7853373167452 H 0.0 **** 0.06
16379 H 39.7055694257467 62.81888556945948 52.05082924677902 H 0.0 **** 0.06
16380 H 38.2252461012807 63.72791851454471 52.44264728748058 H 0.0 **** 0.06
16381 C 81.06628603907762 56.5593959667942 119.49001806608149 C 0.0 **** -0.24
16382 H 81.14227827820949 55.7519246880839 120.21802683343321 H 0.0 **** 0.06
16383 H 80.25697449616514 57.23091889474247 119.77645522539909 H 0.0 **** 0.06
16384 H 80.86054839590926 56.140035271674634 118.50461603589122 H 0.0 **** 0.06
16385 H 82.00500691072926 57.11172409058318 119.46101491778455 H 0.0 **** 0.06
16386 C 14.587840100823978 45.21784403606732 24.510131217775267 C 0.0 **** -0.24
16387 H 15.239085916085298 45.594815746933406 23.72162904324386 H 0.0 **** 0.06
16388 H 14.921129800234123 44.22424846169451 24.812045703712897 H 0.0 **** 0.06
16389 H 13.564323341840943 45.161657632282584 24.14058560857152 H 0.0 **** 0.06
16390 H 14.627638421117666 45.89054266348994 25.36683018272572 H 0.0 **** 0.06
16391 C 84.87181254034323 80.24439451942453 64.4487349749395 C 0.0 **** -0.24
16392 H 85.16715355388243 79.28196629263371 64.0320408315257 H 0.0 **** 0.06
16393 H 84.60907651129014 80.12039423708413 65.499836416866 H 0.0 **** 0.06
16394 H 84.0102907959525 80.62799746824439 63.9015041533537 H 0.0 **** 0.06
16395 H 85.70072930024799 80.94722007973579 64.36155849801253 H 0.0 **** 0.06
16396 C 79.25318454903652 92.61938374731213 111.46102269942403 C 0.0 **** -0.24
16397 H 78.39552391616036 93.09465282659565 110.98549984849036 H 0.0 **** 0.06
16398 H 79.97637875460117 93.38294939165232 111.75034641030152 H 0.0 **** 0.06
16399 H 79.71840243540402 91.925532516674 110.761148972252 H 0.0 **** 0.06
16400 H 78.9229160797139 92.07679416493269 112.34690517594254 H 0.0 **** 0.06
16401 C 30.84511477163042 106.08955428585398 88.13698942773885 C 0.0 **** -0.24
16402 H 29.87360936508508 105.74896433278309 87.7773934652269 H 0.0 **** 0.06
16403 H 30.72048919323712 106.59439621599506 89.09536075635505 H 0.0 **** 0.06
16404 H 31.277155093276953 106.7822667833401 87.41464184052941 H 0.0 **** 0.06
16405 H 31.507374059129276 105.23219031548626 88.25986401742479 H 0.0 **** 0.06
16406 C 59.616540912097776 112.63409392019913 78.77738987620843 C 0.0 **** -0.24
16407 H 58.61355004700553 112.44150643375085 78.3964491202955 H 0.0 **** 0.06
16408 H 59.99659720921193 111.73868877125783 79.26801726345987 H 0.0 **** 0.06
16409 H 59.58148315903938 113.45464911538569 79.4938217146555 H 0.0 **** 0.06
16410 H 60.2741788283646 112.90248451650025 77.94986924432115 H 0.0 **** 0.06
16411 C 38.502437917231816 118.414190886369 92.1514820270246 C 0.0 **** -0.24
16412 H 38.131071147599584 117.82813501394163 91.31103173955961 H 0.0 **** 0.06
16413 H 38.39005918761285 119.4759834478452 91.93210096490017 H 0.0 **** 0.06
16414 H 39.555861820775874 118.18559234851838 92.3159426854316 H 0.0 **** 0.06
16415 H 37.932371638610505 118.16635419454664 93.04745409201013 H 0.0 **** 0.06
16416 C 77.63252908211666 70.5251310219194 66.08970518067935 C 0.0 **** -0.24
16417 H 77.84807865355883 70.08918708047284 67.0651659579028 H 0.0 **** 0.06
16418 H 77.90445450511528 69.8155309590338 65.30704184757103 H 0.0 **** 0.06
16419 H 78.20906463294347 71.4417954887623 65.96601817309093 H 0.0 **** 0.06
16420 H 76.56876733075119 70.75288447628586 66.02141337123058 H 0.0 **** 0.06
16421 C 40.591825119549725 85.15046906414669 54.84417956258966 C 0.0 **** -0.24
16422 H 41.34870763851339 85.05049736518231 55.62254452580028 H 0.0 **** 0.06
16423 H 41.04159700897381 84.94468922735294 53.87256368783467 H 0.0 **** 0.06
16424 H 40.193722280507785 86.16508215642037 54.85265696260382 H 0.0 **** 0.06
16425 H 39.78467826349973 84.44146022916182 55.02902519559545 H 0.0 **** 0.06
16426 C 96.48192556174021 21.177077976288132 123.39093793148857 C 0.0 **** -0.24
16427 H 96.5864576523968 20.464894620670606 122.572213070087 H 0.0 **** 0.06
16428 H 95.82167413390698 21.989255583222928 123.08412830701305 H 0.0 **** 0.06
16429 H 97.461808354206 21.580878148073026 123.64722614627962 H 0.0 **** 0.06
16430 H 96.05849291510214 20.671590425659844 124.25940995345954 H 0.0 **** 0.06
16431 C 86.04329730828313 59.63983773421373 104.13592988203206 C 0.0 **** -0.24
16432 H 86.13029988286083 58.55427832489735 104.11405066461464 H 0.0 **** 0.06
16433 H 85.33703570862208 59.932958657437894 104.91271437454907 H 0.0 **** 0.06
16434 H 85.68771221334693 59.995164141806924 103.16804252682891 H 0.0 **** 0.06
16435 H 87.01914862819204 60.07755382487798 104.34676229858482 H 0.0 **** 0.06
16436 C 102.42345977986064 90.78973125530962 26.2782523269625 C 0.0 **** -0.24
16437 H 101.40248369950446 91.16791507487088 26.23108999337876 H 0.0 **** 0.06
16438 H 102.41502761456768 89.70623447655308 26.16524336178847 H 0.0 **** 0.06
16439 H 102.86339038424975 91.0526089015585 27.24015453858165 H 0.0 **** 0.06
16440 H 103.01240752033816 91.23453009083136 25.476156308786088 H 0.0 **** 0.06
16441 C 119.82403850455376 52.05455384452486 70.02452558677726 C 0.0 **** -0.24
16442 H 120.01807798060673 50.997309557895676 70.20431615820931 H 0.0 **** 0.06
16443 H 120.3456409434246 52.37056015481832 69.12115945308254 H 0.0 **** 0.06
16444 H 120.17863038340238 52.638547499626526 70.87332970572896 H 0.0 **** 0.06
16445 H 118.7524006902172 52.21062476495601 69.89801167544569 H 0.0 **** 0.06
16446 C 50.77454444547095 98.80515270044148 77.75220855461099 C 0.0 **** -0.24
16447 H 51.10998849453813 97.80961194254465 78.04291177207078 H 0.0 **** 0.06
16448 H 50.80994218442777 99.46737831746606 78.61775621380501 H 0.0 **** 0.06
16449 H 49.751728018644144 98.74901624064299 77.37884980212299 H 0.0 **** 0.06
16450 H 51.42676281791876 99.19374248920408 76.96976132379723 H 0.0 **** 0.06
16451 C 11.978899180793576 76.29947805776294 23.377231184761165 C 0.0 **** -0.24
16452 H 12.940672781398064 76.281712249935 23.89075278967482 H 0.0 **** 0.06
16453 H 11.306861122609519 76.98731385325732 23.890937586252306 H 0.0 **** 0.06
16454 H 11.546808958665395 75.29923318528688 23.379142710868074 H 0.0 **** 0.06
16455 H 12.122840434530474 76.63097083998278 22.348955486153187 H 0.0 **** 0.06
16456 C 39.820330160702696 54.534755562243646 24.848510335369085 C 0.0 **** -0.24
16457 H 39.04646861380505 53.76786973644106 24.837203250258213 H 0.0 **** 0.06
16458 H 40.37208035763578 54.507261796756424 23.90834155340093 H 0.0 **** 0.06
16459 H 40.503863473908154 54.35012069909628 25.677186171633195 H 0.0 **** 0.06
16460 H 39.35809891191333 55.514887686084734 24.97026344696434 H 0.0 **** 0.06
16461 C 65.26568379211241 105.39361995598752 51.82229142675651 C 0.0 **** -0.24
16462 H 65.00518749634901 105.66299484266591 50.798413330468435 H 0.0 **** 0.06
16463 H 66.0553424156054 106.05373824207123 52.1812602004067 H 0.0 **** 0.06
16464 H 65.61541822843972 104.36129046170704 51.84767134534967 H 0.0 **** 0.06
16465 H 64.38759586907898 105.49671255303126 52.459522911144504 H 0.0 **** 0.06
16466 C 96.57969330401758 24.211971027260418 22.737358055355884 C 0.0 **** -0.24
16467 H 96.21592844828037 24.015235871363032 23.746187037349188 H 0.0 **** 0.06
16468 H 97.49579986590317 24.80117004513008 22.78970127529135 H 0.0 **** 0.06
16469 H 95.82335196264535 24.76433070608975 22.179717462349146 H 0.0 **** 0.06
16470 H 96.78297395447653 23.26681592584862 22.234437334655524 H 0.0 **** 0.06
16471 C 51.92027413457964 80.50957262441656 114.64046102269853 C 0.0 **** -0.24
16472 H 51.326952032575775 81.19316529182947 114.03376638850844 H 0.0 **** 0.06
16473 H 51.8647737874216 80.81057975004867 115.68625729863368 H 0.0 **** 0.06
16474 H 52.95790619826823 80.53757448298737 114.30903226473552 H 0.0 **** 0.06
16475 H 51.53121196109629 79.49752189765479 114.53199268198645 H 0.0 **** 0.06
16476 C 5.479350045391186 67.3268826434097 119.38617109160234 C 0.0 **** -0.24
16477 H 5.900292741822227 66.35017472091272 119.62550426630048 H 0.0 **** 0.06
16478 H 6.2724292478202415 68.07549842278951 119.39540908742563 H 0.0 **** 0.06
16479 H 4.723806875236562 67.58824020537179 120.12723939177783 H 0.0 **** 0.06
16480 H 5.022181516920284 67.29263450412282 118.39767960159992 H 0.0 **** 0.06
16481 C 100.40899842676058 27.62328114237664 70.50900431474284 C 0.0 **** -0.24
16482 H 99.9516207910161 28.600274495538883 70.36120034523651 H 0.0 **** 0.06
16483 H 101.38808284605523 27.746279585626894 70.9732646059197 H 0.0 **** 0.06
16484 H 100.52353226801927 27.126581786463305 69.5455723168269 H 0.0 **** 0.06
16485 H 99.77332484160843 27.018702942772933 71.15613936931209 H 0.0 **** 0.06
16486 C 6.714281948819494 0.9704051794658461 97.90147594072828 C 0.0 **** -0.24
16487 H 6.545505063154561 -0.09953608924652357 98.02445776783803 H 0.0 **** 0.06
16488 H 6.643278143145729 1.2297159228245818 96.84545281970448 H 0.0 **** 0.06
16489 H 7.705734018602424 1.2265269132541263 98.27324851509275 H 0.0 **** 0.06
16490 H 5.960715926606461 1.5237543036642123 98.4630011292468 H 0.0 **** 0.06
16491 C 4.5659923665721465 43.447141061191644 39.25756638096889 C 0.0 **** -0.24
16492 H 3.6529957744886588 44.026144683725875 39.12046616315399 H 0.0 **** 0.06
16493 H 4.45682641242243 42.796668082723045 40.12563273478541 H 0.0 **** 0.06
16494 H 5.405899909612941 44.125016212693055 39.41417144184875 H 0.0 **** 0.06
16495 H 4.748212339355973 42.84167653206498 38.369659258042084 H 0.0 **** 0.06
16496 C 9.244586869167676 69.04737110159417 31.115842959236467 C 0.0 **** -0.24
16497 H 9.412236349076238 69.9985041546507 30.610751854255 H 0.0 **** 0.06
16498 H 8.770271362102221 69.227010973631 32.080741811687425 H 0.0 **** 0.06
16499 H 10.199169221626391 68.54398541139744 31.26731183061574 H 0.0 **** 0.06
16500 H 8.59670441034433 68.42056866193079 30.503279103231897 H 0.0 **** 0.06
16501 C 36.31972831143344 109.17710903864977 102.47686178143255 C 0.0 **** -0.24
16502 H 36.08147527435331 109.51877314407554 103.48418576333674 H 0.0 **** 0.06
16503 H 35.439501120582065 108.71172721303898 102.03302472396877 H 0.0 **** 0.06
16504 H 37.13136529813221 108.4504089999331 102.52235871320758 H 0.0 **** 0.06
16505 H 36.62786815852411 110.02756251608554 101.8684415290972 H 0.0 **** 0.06
16506 C 70.56125069133944 77.02805737367719 58.17424657360763 C 0.0 **** -0.24
16507 H 70.57197712764508 77.58801209161804 57.23863651648324 H 0.0 **** 0.06
16508 H 70.22925525840151 77.67981298673605 58.98286401459134 H 0.0 **** 0.06
16509 H 71.56587202056969 76.66441656966687 58.39005625477927 H 0.0 **** 0.06
16510 H 69.87954681133672 76.1824570260165 58.08499792888907 H 0.0 **** 0.06
16511 C 35.052898998407954 128.42210515123432 3.3124707346030107 C 0.0 **** -0.24
16512 H 34.12928146344936 128.14910722915906 2.8021627411145857 H 0.0 **** 0.06
16513 H 35.70484194877011 127.55114131510831 3.37518296499465 H 0.0 **** 0.06
16514 H 34.821666626523154 128.7771167458807 4.316873960452739 H 0.0 **** 0.06
16515 H 35.55472042857113 129.21371166708715 2.7547880983694597 H 0.0 **** 0.06
16516 C 94.9906425857794 108.51933868576023 94.9093150216944 C 0.0 **** -0.24
16517 H 95.32501033129031 109.55722065528354 94.9281503038685 H 0.0 **** 0.06
16518 H 94.52791894783476 108.26968233602338 95.86388193169529 H 0.0 **** 0.06
16519 H 95.8464583732108 107.8662843377189 94.73783080199206 H 0.0 **** 0.06
16520 H 94.26550062348767 108.3860600855435 94.10637453176537 H 0.0 **** 0.06
16521 C 16.271327658054474 81.32521587126189 71.8211103897491 C 0.0 **** -0.24
16522 H 15.660854535433415 80.57227122908304 71.32258817016347 H 0.0 **** 0.06
16523 H 17.219348146760723 80.88134299012381 72.12506843135264 H 0.0 **** 0.06
16524 H 15.744050552496475 81.69499991638043 72.70153595999179 H 0.0 **** 0.06
16525 H 16.45929353099484 82.15125216711169 71.13619487378341 H 0.0 **** 0.06
16526 C 84.69900492642687 28.99015559652895 67.81248863520905 C 0.0 **** -0.24
16527 H 84.9256436592632 27.95697425297834 67.55185365937503 H 0.0 **** 0.06
16528 H 84.97825092963019 29.1724740842277 68.84980153879057 H 0.0 **** 0.06
16529 H 83.63128723789889 29.170979598427493 67.68559841609094 H 0.0 **** 0.06
16530 H 85.26090711685974 29.659658508310542 67.16139398970518 H 0.0 **** 0.06
16531 C 115.76962711550651 74.71981723542461 105.9588997567038 C 0.0 **** -0.24
16532 H 115.30040524932635 75.33414247300402 105.19148153792639 H 0.0 **** 0.06
16533 H 115.02038515488958 74.42382705084464 106.69438861880948 H 0.0 **** 0.06
16534 H 116.55629492498578 75.29204906023739 106.45187849272108 H 0.0 **** 0.06
16535 H 116.2003024111236 73.82980843328266 105.50108042469662 H 0.0 **** 0.06
16536 C 20.284488195177104 21.2658226235532 62.41162019995602 C 0.0 **** -0.24
16537 H 19.50836552321681 20.899654931834604 63.08248769810892 H 0.0 **** 0.06
16538 H 21.263721556688722 20.986386173652512 62.80350015720717 H 0.0 **** 0.06
16539 H 20.219130961580163 22.351856308095442 62.338580538503905 H 0.0 **** 0.06
16540 H 20.149269221522886 20.82680138148733 61.42427754267105 H 0.0 **** 0.06
16541 C 69.32761704126357 95.09617950149597 110.80894703306815 C 0.0 **** -0.24
16542 H 69.02912919432224 94.04755302615735 110.79956464796733 H 0.0 **** 0.06
16543 H 68.43949650159048 95.72593209222912 110.85915697210571 H 0.0 **** 0.06
16544 H 69.88354371418632 95.32403241562105 109.89981996885989 H 0.0 **** 0.06
16545 H 69.9577499471905 95.2861491095814 111.67801697117532 H 0.0 **** 0.06
16546 C 117.54299423811904 100.38934636988083 54.57353734789312 C 0.0 **** -0.24
16547 H 117.9083743283627 99.38625283932308 54.35421974416556 H 0.0 **** 0.06
16548 H 117.3742070362049 100.48880213735444 55.64596959386533 H 0.0 **** 0.06
16549 H 116.60714560042129 100.5588174655795 54.04028000934416 H 0.0 **** 0.06
16550 H 118.28198418389076 101.12310374004463 54.2514978196491 H 0.0 **** 0.06
16551 C 122.29781296797327 124.69825643810694 59.976264866150245 C 0.0 **** -0.24
16552 H 123.37182659502463 124.64752793096656 60.155808256402125 H 0.0 **** 0.06
16553 H 122.05898210724862 125.63321791711871 59.470084775945764 H 0.0 **** 0.06
16554 H 121.76817244182512 124.65247323362888 60.927302312369605 H 0.0 **** 0.06
16555 H 121.99567055971515 123.85737811792714 59.35112636561426 H 0.0 **** 0.06
16556 C 77.75095696783514 98.08517951441348 22.98838128654151 C 0.0 **** -0.24
16557 H 78.6427474103154 98.70618106166437 22.907849824395527 H 0.0 **** 0.06
16558 H 77.07462103702498 98.51479251227133 23.727527999619923 H 0.0 **** 0.06
16559 H 78.03571200021068 97.07887297981247 23.29720527525447 H 0.0 **** 0.06
16560 H 77.25145718576633 98.04044026846049 22.02038497430091 H 0.0 **** 0.06
16561 C 67.76192657678173 85.7812194450819 47.41359812765813 C 0.0 **** -0.24
16562 H 68.65521253869416 85.35650075292621 46.95525250417927 H 0.0 **** 0.06
16563 H 67.06153694897314 86.08178302499437 46.63356002424757 H 0.0 **** 0.06
16564 H 68.037986770975 86.65054385223326 48.00909307055764 H 0.0 **** 0.06
16565 H 67.29428543827188 85.03518592340058 48.054898471678314 H 0.0 **** 0.06
16566 C 1.291720529843019 115.03110528162404 30.011070065534653 C 0.0 **** -0.24
16567 H 2.3221123937206585 114.71869644276808 30.177349137390507 H 0.0 **** 0.06
16568 H 0.8512976064908457 115.35070365706838 30.95568904398189 H 0.0 **** 0.06
16569 H 0.7197627783624512 114.1958449507855 29.60755432490896 H 0.0 **** 0.06
16570 H 1.273575898866568 115.85978592684796 29.302418745637254 H 0.0 **** 0.06
16571 C 46.471097133570765 88.40304321294688 6.121421629675211 C 0.0 **** -0.24
16572 H 47.04722392011709 88.59682888371336 5.216310286915018 H 0.0 **** 0.06
16573 H 46.219171871513 87.34381988881243 6.170889482356216 H 0.0 **** 0.06
16574 H 45.55572134895233 88.99453019201208 6.1020619155671625 H 0.0 **** 0.06
16575 H 47.06361492017659 88.67768621443463 6.994034004033381 H 0.0 **** 0.06
16576 C 61.42131401615069 106.92697126678485 66.40062761301687 C 0.0 **** -0.24
16577 H 61.09281432551859 106.52034233118616 65.4448932082415 H 0.0 **** 0.06
16578 H 60.7203882272355 107.69407424718077 66.72971046280932 H 0.0 **** 0.06
16579 H 62.41312430984851 107.36414428241483 66.28756330927419 H 0.0 **** 0.06
16580 H 61.4584662293006 106.127787388341 67.14190043237454 H 0.0 **** 0.06
16581 C 45.60510270558726 74.02267236677449 28.327753048735957 C 0.0 **** -0.24
16582 H 44.717601484552205 73.63451499971842 28.82700837570473 H 0.0 **** 0.06
16583 H 46.004011099248004 73.26406712076965 27.654178512696383 H 0.0 **** 0.06
16584 H 46.35844003782506 74.27857215937371 29.07359599180868 H 0.0 **** 0.06
16585 H 45.34104856325962 74.91362083482517 27.757815578239196 H 0.0 **** 0.06
16586 C 92.85154371625288 66.5891039434763 70.61698028374143 C 0.0 **** -0.24
16587 H 92.12403076786246 67.1666556118886 71.18772582883867 H 0.0 **** 0.06
16588 H 93.23585680412866 65.77728464328386 71.23376330208472 H 0.0 **** 0.06
16589 H 93.67376494852392 67.23802738288022 70.31453836596667 H 0.0 **** 0.06
16590 H 92.36964021480044 66.1756464120688 69.7298300863286 H 0.0 **** 0.06
16591 C 102.02471492041478 4.819065480310396 72.50885679994985 C 0.0 **** -0.24
16592 H 101.24448932990575 5.562657323169294 72.35139385900936 H 0.0 **** 0.06
16593 H 101.57130245269515 3.8357412429979405 72.62918545719094 H 0.0 **** 0.06
16594 H 102.5906533066623 5.071108563077956 73.40609452693934 H 0.0 **** 0.06
16595 H 102.69463763290628 4.807712797084555 71.64837831954799 H 0.0 **** 0.06
16596 C 121.67417937961332 33.301035221826425 17.87944111214034 C 0.0 **** -0.24
16597 H 120.70219699228039 33.76408622231588 17.710919750685797 H 0.0 **** 0.06
16598 H 121.98365036646769 33.47100522030021 18.910257453474117 H 0.0 **** 0.06
16599 H 122.40728424804703 33.739642300394195 17.202883264488037 H 0.0 **** 0.06
16600 H 121.60326659669886 32.230025149480554 17.692472631284538 H 0.0 **** 0.06
16601 C 77.17375197011108 29.1262217080129 107.70998959878868 C 0.0 **** -0.24
16602 H 76.9109263189523 28.319066302982108 108.39256648718359 H 0.0 **** 0.06
16603 H 76.94155346522217 28.827051929676344 106.68753284724637 H 0.0 **** 0.06
16604 H 78.23944994976483 29.340635399177906 107.79271250182998 H 0.0 **** 0.06
16605 H 76.60231719501922 30.0187652218101 107.96613580994565 H 0.0 **** 0.06
16606 C 113.94208833740203 74.27106679227877 50.66348096906222 C 0.0 **** -0.24
16607 H 113.55017703058024 73.26081283862317 50.78618798341748 H 0.0 **** 0.06
16608 H 113.77126404915151 74.84000441139477 51.578142433552244 H 0.0 **** 0.06
16609 H 113.43355986020305 74.75853318400111 49.83160250286295 H 0.0 **** 0.06
16610 H 115.01059580314109 74.22386944058954 50.45854304172275 H 0.0 **** 0.06
16611 C 57.41797995783884 92.96791173567448 52.621188894357715 C 0.0 **** -0.24
16612 H 57.70254675737701 93.4939447449057 53.532672575624304 H 0.0 **** 0.06
16613 H 56.648502590271875 93.53723277413756 52.099331987708354 H 0.0 **** 0.06
16614 H 57.03037498923058 91.98168381450398 52.87683778078275 H 0.0 **** 0.06
16615 H 58.29050557101337 92.86005856869113 51.9770878142275 H 0.0 **** 0.06
16616 C 67.13051343005438 54.333879597723865 56.10682436642729 C 0.0 **** -0.24
16617 H 66.12031144238856 54.60470806742677 55.80196492235545 H 0.0 **** 0.06
16618 H 67.65733090365701 55.22444542155205 56.45285826680056 H 0.0 **** 0.06
16619 H 67.66369678023669 53.90320532032837 55.25826102296148 H 0.0 **** 0.06
16620 H 67.08236262853535 53.6030164098907 56.91369978336833 H 0.0 **** 0.06
16621 C 68.55734401685316 45.00971365108373 112.54272086011454 C 0.0 **** -0.24
16622 H 68.01175518949606 45.85752129890952 112.1296828058581 H 0.0 **** 0.06
16623 H 69.41710317022785 45.37115040338759 113.10724027024615 H 0.0 **** 0.06
16624 H 68.89948413595508 44.36653975650205 111.731213610877 H 0.0 **** 0.06
16625 H 67.90101967534935 44.442374982748845 113.20337259845336 H 0.0 **** 0.06
16626 C 45.7305916098791 10.697528543686872 1.9041155441977082 C 0.0 **** -0.24
16627 H 46.071230956821466 10.106969523866042 1.0540894820182984 H 0.0 **** 0.06
16628 H 45.25031852870194 11.608243473832033 1.5442716416118856 H 0.0 **** 0.06
16629 H 46.584348050147554 10.9593892626321 2.529504544004965 H 0.0 **** 0.06
16630 H 45.01738321712293 10.11641019529793 2.4879988181077692 H 0.0 **** 0.06
16631 C 23.601813730305423 103.85045723667963 117.02312760161705 C 0.0 **** -0.24
16632 H 23.641144918327598 103.11334608333382 117.82523836940935 H 0.0 **** 0.06
16633 H 24.32755019465759 103.58936932167413 116.25356922344287 H 0.0 **** 0.06
16634 H 23.836521289680547 104.83694700966598 117.42523935476336 H 0.0 **** 0.06
16635 H 22.6013493290651 103.86436781403785 116.59038175991725 H 0.0 **** 0.06
16636 C 128.27956179452156 130.00982003634698 51.865598731065404 C 0.0 **** -0.24
16637 H 127.30350467792906 130.29696231097694 51.47367868238064 H 0.0 **** 0.06
16638 H 128.982162056761 129.89199461102186 51.039676459650025 H 0.0 **** 0.06
16639 H 128.19076421613494 129.06765600157445 52.404921730381204 H 0.0 **** 0.06
16640 H 128.6416483307869 130.78395316291028 52.54229639161292 H 0.0 **** 0.06
16641 C 29.358365757957984 21.92740650792382 75.36602116682127 C 0.0 **** -0.24
16642 H 29.552743178711182 22.293445232274678 76.37505716317827 H 0.0 **** 0.06
16643 H 30.287991428917394 21.921446446339814 74.79711603636355 H 0.0 **** 0.06
16644 H 28.63535729194649 22.580282072273064 74.87662996648442 H 0.0 **** 0.06
16645 H 28.95670046160143 20.91586408743524 75.41820684198456 H 0.0 **** 0.06
16646 C 76.12187290580758 87.78373608551911 72.68754726609995 C 0.0 **** -0.24
16647 H 77.0804400474671 88.14790364913422 73.05687161833818 H 0.0 **** 0.06
16648 H 76.03431118853871 86.71701971590154 72.89324750610425 H 0.0 **** 0.06
16649 H 76.06002327979806 87.95300582782721 71.61153473382642 H 0.0 **** 0.06
16650 H 75.31355221801829 88.31881522851654 73.18628513761068 H 0.0 **** 0.06
16651 C 18.741094388680864 59.65555790531168 33.115512923501115 C 0.0 **** -0.24
16652 H 18.91196905767461 60.34310420620139 33.94298033576743 H 0.0 **** 0.06
16653 H 18.485059841688894 60.222287658116414 32.219758925946195 H 0.0 **** 0.06
16654 H 17.92210685744047 58.98230022887405 33.365696677675786 H 0.0 **** 0.06
16655 H 19.645695615211793 59.07520222699819 32.93245171343261 H 0.0 **** 0.06
16656 C 18.406422580768037 90.94647564093255 87.99830922333052 C 0.0 **** -0.24
16657 H 18.199852709686212 90.53209102508795 88.9853552093632 H 0.0 **** 0.06
16658 H 17.56733057528109 90.7389607607036 87.33462358745277 H 0.0 **** 0.06
16659 H 19.310863184245534 90.49067960891445 87.5964801641718 H 0.0 **** 0.06
16660 H 18.547378951857212 92.02413406132727 88.08008384603392 H 0.0 **** 0.06
16661 C 55.70623930236172 100.86938462953718 16.805670107489505 C 0.0 **** -0.24
16662 H 55.51070684468638 101.83440752437448 16.337312997481234 H 0.0 **** 0.06
16663 H 56.34634115920531 100.27352032081863 16.154858443928532 H 0.0 **** 0.06
16664 H 54.762754709596294 100.34668843639801 16.9665584143236 H 0.0 **** 0.06
16665 H 56.20302918722783 101.02498330779675 17.762838995331066 H 0.0 **** 0.06
16666 C 98.34152544521629 126.03876065011113 69.60190717075758 C 0.0 **** -0.24
16667 H 97.25473034670011 126.08850509008994 69.65741658047463 H 0.0 **** 0.06
16668 H 98.69696446775123 126.7195658661536 68.82749777690569 H 0.0 **** 0.06
16669 H 98.64738655481057 125.0211034918106 69.35967722739642 H 0.0 **** 0.06
16670 H 98.76742024236904 126.32800415356155 70.56356427384188 H 0.0 **** 0.06
16671 C 29.32011536170154 22.15171222466062 15.40122120510257 C 0.0 **** -0.24
16672 H 28.29199819225093 22.483171643187376 15.55186745403833 H 0.0 **** 0.06
16673 H 29.89692223598658 22.334234362187345 16.309443162863825 H 0.0 **** 0.06
16674 H 29.761664606499323 22.70499251469512 14.572719170677036 H 0.0 **** 0.06
16675 H 29.328535261339624 21.086179307965928 15.172907499984976 H 0.0 **** 0.06
16676 C 78.58399149959375 23.243924630744203 12.246985671629261 C 0.0 **** -0.24
16677 H 78.69072839536348 23.528592860252658 13.293182899583257 H 0.0 **** 0.06
16678 H 77.52692069938769 23.12909991097871 12.007373337100589 H 0.0 **** 0.06
16679 H 79.10017956503809 22.299478677725745 12.073102883643912 H 0.0 **** 0.06
16680 H 79.01900874555312 24.01735718591246 11.613349660648112 H 0.0 **** 0.06
16681 C 64.11189748474018 99.9282028916181 40.971913579257205 C 0.0 **** -0.24
16682 H 64.27065549999284 100.99853538884173 41.10031787407599 H 0.0 **** 0.06
16683 H 63.04245739859968 99.71480291615784 40.98778494044292 H 0.0 **** 0.06
16684 H 64.60296314854966 99.38858055006955 41.781906622503655 H 0.0 **** 0.06
16685 H 64.53167442937539 99.61062212149221 40.016695635705815 H 0.0 **** 0.06
16686 C 45.904253878986765 41.413678475846524 59.281131464485796 C 0.0 **** -0.24
16687 H 46.08286195643137 41.16985862768814 58.233606984120996 H 0.0 **** 0.06
16688 H 46.59082351756163 40.8453935218682 59.908703624510196 H 0.0 **** 0.06
16689 H 44.87708897901459 41.15805417824242 59.542994034706794 H 0.0 **** 0.06
16690 H 46.06433449340963 42.47931832600145 59.439243040949606 H 0.0 **** 0.06
16691 C 29.372410572681375 37.23694322623754 68.18180641647413 C 0.0 **** -0.24
16692 H 29.61911778196722 36.55554909661075 68.99577941414645 H 0.0 **** 0.06
16693 H 29.71339176841493 36.811728649948094 67.23642447773184 H 0.0 **** 0.06
16694 H 29.86549846543131 38.194691725382285 68.34766660539745 H 0.0 **** 0.06
16695 H 28.29387526896138 37.384736288585685 68.14599885153254 H 0.0 **** 0.06
16696 C 102.26849362359584 90.76955633703301 8.190265233401647 C 0.0 **** -0.24
16697 H 103.06311605014112 90.52366992126025 8.894832157435133 H 0.0 **** 0.06
16698 H 102.52997453190214 90.38933718742788 7.202445089102412 H 0.0 **** 0.06
16699 H 102.14768885613807 91.8524678386691 8.142156590461752 H 0.0 **** 0.06
16700 H 101.33588713172999 90.31353240684814 8.520558593262933 H 0.0 **** 0.06
16701 C 44.394408247937804 112.32449242501934 128.60515833416318 C 0.0 **** -0.24
16702 H 44.60250815135379 111.37870359245476 129.1054276450643 H 0.0 **** 0.06
16703 H 45.32829698058765 112.86462081355249 128.44673586754948 H 0.0 **** 0.06
16704 H 43.728308368751925 112.92455396924642 129.2249458399916 H 0.0 **** 0.06
16705 H 43.91912473803802 112.13084694981633 127.64327345877366 H 0.0 **** 0.06
16706 C 100.60392886781938 55.97773875925499 67.9701703566436 C 0.0 **** -0.24
16707 H 101.00250614225412 55.01716561510277 67.64219334773637 H 0.0 **** 0.06
16708 H 100.89804326989548 56.15760593908374 69.00476063737544 H 0.0 **** 0.06
16709 H 99.51683215896652 55.963291484797764 67.8991250766121 H 0.0 **** 0.06
16710 H 101.00024495640952 56.77071782636733 67.33622145626654 H 0.0 **** 0.06
16711 C 6.550351642145358 94.95202679493877 21.882733633134286 C 0.0 **** -0.24
16712 H 7.339317704911139 95.22538342734885 22.58331708120636 H 0.0 **** 0.06
16713 H 6.860055781932147 95.20916462455625 20.869303316546407 H 0.0 **** 0.06
16714 H 5.638610505176018 95.49284509082804 22.13291564977215 H 0.0 **** 0.06
16715 H 6.365638100337719 93.87969208751167 21.945180748260448 H 0.0 **** 0.06
16716 C 24.85944619528388 74.8735594899897 76.00920705885808 C 0.0 **** -0.24
16717 H 25.09518058035799 75.79920127032187 75.48377667919 H 0.0 **** 0.06
16718 H 25.34328928776287 74.03668109638863 75.50470439719031 H 0.0 **** 0.06
16719 H 23.780021626551672 74.72244519823971 76.01133661807279 H 0.0 **** 0.06
16720 H 25.219998906409515 74.9363467791668 77.03586521078387 H 0.0 **** 0.06
16721 C 3.9780033653256055 52.851821834443825 61.250843357358804 C 0.0 **** -0.24
16722 H 4.705221842562935 53.298500592624606 60.571897179781246 H 0.0 **** 0.06
16723 H 3.3408489053567223 53.633280835727774 61.665054051778384 H 0.0 **** 0.06
16724 H 4.500706311672502 52.34053863206313 62.058744058815364 H 0.0 **** 0.06
16725 H 3.365225701637428 52.13450980385342 60.70410164205373 H 0.0 **** 0.06
16726 C 114.93394226266554 122.82606421271484 99.55446162760575 C 0.0 **** -0.24
16727 H 114.47794725415054 123.51219855908788 98.84159374862114 H 0.0 **** 0.06
16728 H 115.86550939860405 122.43832586453252 99.14023559518026 H 0.0 **** 0.06
16729 H 114.25154355681434 121.99974395495317 99.75094381566194 H 0.0 **** 0.06
16730 H 115.1428624835815 123.35516062554895 100.484580346341 H 0.0 **** 0.06
16731 C 122.0037238799971 3.630227838058488 91.65702252956068 C 0.0 **** -0.24
16732 H 122.81252587933801 4.189515092947602 92.12705715642362 H 0.0 **** 0.06
16733 H 121.62541786094545 2.8830693868493995 92.35511944822234 H 0.0 **** 0.06
16734 H 122.37755605713102 3.135248516029719 90.76064233558782 H 0.0 **** 0.06
16735 H 121.1994479895755 4.315065952283533 91.38505448793367 H 0.0 **** 0.06
16736 C 123.90530955838179 2.2490318473854813 80.6384105521193 C 0.0 **** -0.24
16737 H 124.61024033051754 1.7876252513350437 79.94755023785723 H 0.0 **** 0.06
16738 H 123.14995808190122 2.7970481197904746 80.07400745503566 H 0.0 **** 0.06
16739 H 124.4366977574033 2.936640465903224 81.29614258104567 H 0.0 **** 0.06
16740 H 123.42200277184682 1.4755393060061124 81.23597841968189 H 0.0 **** 0.06
16741 C 16.183490625349027 124.68047846906882 92.57259526333196 C 0.0 **** -0.24
16742 H 16.56655659931195 124.55857523314927 91.55950073547682 H 0.0 **** 0.06
16743 H 15.126405102427093 124.41289029219584 92.5954494920785 H 0.0 **** 0.06
16744 H 16.30283662537399 125.71758925176812 92.88344914402299 H 0.0 **** 0.06
16745 H 16.73720322638252 124.03159501882217 93.25040721048217 H 0.0 **** 0.06
16746 C 69.00846180909292 42.56235231342771 39.100492056794444 C 0.0 **** -0.24
16747 H 68.70243194196695 42.2279665504675 40.09168948543478 H 0.0 **** 0.06
16748 H 68.6565523520953 43.581601231307786 38.937664203729646 H 0.0 **** 0.06
16749 H 68.57919489906048 41.90390614896398 38.34553376638542 H 0.0 **** 0.06
16750 H 70.09614524062582 42.53774322690765 39.02830716706432 H 0.0 **** 0.06
16751 C 75.86014407184328 52.158796047912816 63.43789050199604 C 0.0 **** -0.24
16752 H 75.55265536352931 51.15488368912881 63.72843149241447 H 0.0 **** 0.06
16753 H 75.76946950849765 52.8285344055392 64.29375275197654 H 0.0 **** 0.06
16754 H 75.22083535265381 52.51465055968028 62.62877709552109 H 0.0 **** 0.06
16755 H 76.89560865607484 52.138331037144056 63.099898375750996 H 0.0 **** 0.06
16756 C 128.92370705189757 34.80193961425303 126.984413177651 C 0.0 **** -0.24
16757 H 129.63454063186967 34.10113489903597 127.42074535541379 H 0.0 **** 0.06
16758 H 129.43906685720788 35.72648476187808 126.72307423509643 H 0.0 **** 0.06
16759 H 128.1363627898402 35.017084015783496 127.70654152137438 H 0.0 **** 0.06
16760 H 128.48507142762597 34.36429642116241 126.08793413906857 H 0.0 **** 0.06
16761 C 126.58805302997905 56.32311462677512 95.46151044484387 C 0.0 **** -0.24
16762 H 126.97292655454876 56.62260518349541 96.43617358086318 H 0.0 **** 0.06
16763 H 126.62142730329266 57.174952036453064 94.78174306154307 H 0.0 **** 0.06
16764 H 125.55854302410435 55.98140669586371 95.56718112045844 H 0.0 **** 0.06
16765 H 127.20136850131443 55.51467316745796 95.06157282772871 H 0.0 **** 0.06
16766 C 7.8485170576749965 25.553189782542802 99.79059610601121 C 0.0 **** -0.24
16767 H 6.966867647490034 25.069788504849214 100.21051627445104 H 0.0 **** 0.06
16768 H 7.64533654383041 25.84764116964425 98.76028372192314 H 0.0 **** 0.06
16769 H 8.687606958350898 24.857879861695835 99.81146987970459 H 0.0 **** 0.06
16770 H 8.093571639052158 26.43716732355523 100.37891013748754 H 0.0 **** 0.06
16771 C 50.72847340454166 113.15575826191258 14.614766018107051 C 0.0 **** -0.24
16772 H 51.75053202362864 112.825273926286 14.797409663583434 H 0.0 **** 0.06
16773 H 50.60611763815484 113.39170282497986 13.558044837108717 H 0.0 **** 0.06
16774 H 50.52171748316948 114.04479798351275 15.211645323236166 H 0.0 **** 0.06
16775 H 50.03523108211385 112.36236461129141 14.894129700785292 H 0.0 **** 0.06
16776 C 74.09427452027393 96.78774167534317 58.197525363421164 C 0.0 **** -0.24
16777 H 74.47752122864847 96.97079045014463 59.20074393639449 H 0.0 **** 0.06
16778 H 73.02681414992821 96.57471375358988 58.25031651837152 H 0.0 **** 0.06
16779 H 74.61359316919152 95.93518339439589 57.76018342389597 H 0.0 **** 0.06
16780 H 74.25902489054306 97.66958507118736 57.57815227088912 H 0.0 **** 0.06
16781 C 62.09743242362744 66.57171596014152 118.79260425275653 C 0.0 **** -0.24
16782 H 62.70222922406781 67.25270447260307 118.19480171175812 H 0.0 **** 0.06
16783 H 61.981369087440584 65.62635449792391 118.26034340463386 H 0.0 **** 0.06
16784 H 61.11624599667641 67.01326552646697 118.96620330350532 H 0.0 **** 0.06
16785 H 62.58969143513457 66.39210035599274 119.74918715848543 H 0.0 **** 0.06
16786 C 12.478369451892632 83.7486170995406 96.53636037335369 C 0.0 **** -0.24
16787 H 13.503529595420872 84.06035037971228 96.33662928567364 H 0.0 **** 0.06
16788 H 12.47297050226669 83.00959928667689 97.33824818015496 H 0.0 **** 0.06
16789 H 12.049696030198191 83.31060137309979 95.6348190226838 H 0.0 **** 0.06
16790 H 11.887790075530091 84.61523655645163 96.83578192081536 H 0.0 **** 0.06
16791 C 81.57484735011758 30.079161054049038 6.714791253275905 C 0.0 **** -0.24
16792 H 81.79926660600336 31.097696392294722 6.398503068258151 H 0.0 **** 0.06
16793 H 81.94636005737698 29.377633851334764 5.967973771936727 H 0.0 **** 0.06
16794 H 80.49592827484094 29.961294944139937 6.820340931490136 H 0.0 **** 0.06
16795 H 82.05718154544002 29.881880096497852 7.672015053110783 H 0.0 **** 0.06
16796 C 41.12207680273613 9.948350176211363 111.46295522930075 C 0.0 **** -0.24
16797 H 42.176114712533206 9.69485939119977 111.34750392731179 H 0.0 **** 0.06
16798 H 40.986964655605675 11.019058056867664 111.3025777379982 H 0.0 **** 0.06
16799 H 40.79404178583192 9.686909777235599 112.46947073692844 H 0.0 **** 0.06
16800 H 40.5323537795949 9.393715644914607 110.73342268390351 H 0.0 **** 0.06
16801 C 122.32936329501143 56.78576700480045 3.7653443974830907 C 0.0 **** -0.24
16802 H 122.44484784408152 57.51141379713712 4.5710928562866115 H 0.0 **** 0.06
16803 H 121.98610550911415 57.29541257499977 2.864986712571806 H 0.0 **** 0.06
16804 H 121.59873890498517 56.03258482016568 4.058579814904931 H 0.0 **** 0.06
16805 H 123.28822591949948 56.30590992177821 3.5686437825003736 H 0.0 **** 0.06
16806 C 14.157608492364801 75.50645059200087 27.19810139605653 C 0.0 **** -0.24
16807 H 14.56740600972708 75.77374750962147 28.172304065847015 H 0.0 **** 0.06
16808 H 14.240725490604035 74.42857539725534 27.052931861923753 H 0.0 **** 0.06
16809 H 14.713821548925551 76.02240811974045 26.415603266373353 H 0.0 **** 0.06
16810 H 13.109459244596025 75.79938145409386 27.153045409356707 H 0.0 **** 0.06
16811 C 14.69442875141982 3.8811856807765253 29.7772225824109 C 0.0 **** -0.24
16812 H 13.662292112943504 3.9968207993227907 30.108595438803206 H 0.0 **** 0.06
16813 H 14.739984882981474 3.974503197681713 28.692870764206475 H 0.0 **** 0.06
16814 H 15.06313351552015 2.899744353879612 30.07410158800127 H 0.0 **** 0.06
16815 H 15.311015342630952 4.654622099089693 30.235860334028416 H 0.0 **** 0.06
16816 C 39.47027285328585 127.07753819126529 55.048747851569416 C 0.0 **** -0.24
16817 H 38.49636852574088 126.7383718557854 55.40208627626701 H 0.0 **** 0.06
16818 H 40.2306134707523 126.83223282599798 55.78969916443529 H 0.0 **** 0.06
16819 H 39.44500472509526 128.15638507364653 54.896819021608835 H 0.0 **** 0.06
16820 H 39.70688111036833 126.58296862667501 54.10652178356942 H 0.0 **** 0.06
16821 C 108.18154539126344 129.82782269691532 86.32693895097955 C 0.0 **** -0.24
16822 H 107.32340847726661 129.17437126371036 86.48654400714706 H 0.0 **** 0.06
16823 H 109.0285725924499 129.2346588808367 85.98182144303073 H 0.0 **** 0.06
16824 H 108.43988133385058 130.32190536281874 87.26280232292638 H 0.0 **** 0.06
16825 H 107.93156161304614 130.5773337702374 85.57607096727492 H 0.0 **** 0.06
16826 C 59.34902293538761 65.20625399956185 127.37186749197272 C 0.0 **** -0.24
16827 H 58.55737134002737 65.94447998233181 127.50122605387526 H 0.0 **** 0.06
16828 H 60.009502990433276 65.22595702654144 128.2385487125025 H 0.0 **** 0.06
16829 H 59.920945405393354 65.44134537989135 126.47354000661312 H 0.0 **** 0.06
16830 H 58.90766465575024 64.21437843794808 127.27207653438819 H 0.0 **** 0.06
16831 C 12.575311322429016 100.26823436747149 112.05946360686356 C 0.0 **** -0.24
16832 H 12.024432349571782 100.60875923261759 112.93614064927839 H 0.0 **** 0.06
16833 H 13.12444781809188 101.10523126218419 111.62676411939489 H 0.0 **** 0.06
16834 H 11.875671433320903 99.87250580648552 111.32261460341208 H 0.0 **** 0.06
16835 H 13.27572629964942 99.48542371518823 112.35216458889012 H 0.0 **** 0.06
16836 C 60.22625641339337 71.05195793657543 75.16109475277231 C 0.0 **** -0.24
16837 H 59.209025496391206 70.68454580426601 75.027940626373 H 0.0 **** 0.06
16838 H 60.92633610639646 70.22165629600295 75.07479866474876 H 0.0 **** 0.06
16839 H 60.32056967882917 71.50684787056983 76.14678414931458 H 0.0 **** 0.06
16840 H 60.4469345122817 71.79533177088837 74.39467448790053 H 0.0 **** 0.06
16841 C 30.836206175926378 47.3375450142816 5.683516470378223 C 0.0 **** -0.24
16842 H 30.650531044735686 47.624221004266985 4.647947474255986 H 0.0 **** 0.06
16843 H 30.94385673016427 48.23492920150636 6.294218972260964 H 0.0 **** 0.06
16844 H 31.751666245906932 46.74889689639082 5.738093869125208 H 0.0 **** 0.06
16845 H 29.99958892594563 46.744988510693986 6.052720743640535 H 0.0 **** 0.06
16846 C 128.89025667539343 1.3561638857322578 96.11753236838021 C 0.0 **** -0.24
16847 H 129.82204813301806 1.638044191762333 95.62787881140919 H 0.0 **** 0.06
16848 H 129.09225583192497 1.0907484837106267 97.1555311678397 H 0.0 **** 0.06
16849 H 128.45353438901563 0.5007029332767843 95.60226285666897 H 0.0 **** 0.06
16850 H 128.193769244361 2.1940929422700037 96.08518065357902 H 0.0 **** 0.06
16851 C 38.13558901452553 94.93728995782786 75.7283586049225 C 0.0 **** -0.24
16852 H 38.56410116325567 95.2566147670552 74.77814784092433 H 0.0 **** 0.06
16853 H 37.062236518056984 94.78551841285358 75.6087452267223 H 0.0 **** 0.06
16854 H 38.312011736960336 95.70340188306642 76.48237447092512 H 0.0 **** 0.06
16855 H 38.60209335228807 94.00374046535299 76.04185897112716 H 0.0 **** 0.06
16856 C 0.6256850152885249 69.63939062523417 22.491160035804853 C 0.0 **** -0.24
16857 H 1.0748240827604327 69.34758344725063 23.441325404307634 H 0.0 **** 0.06
16858 H -0.25717367433913907 70.24961321114756 22.680633985372822 H 0.0 **** 0.06
16859 H 0.33925376350205916 68.74679779310175 21.935451826177257 H 0.0 **** 0.06
16860 H 1.3470662188200855 70.21339945096808 21.910137264197374 H 0.0 **** 0.06
16861 C 90.24851380351004 107.9299531823031 111.11207995631594 C 0.0 **** -0.24
16862 H 89.31903272195188 108.37512893748989 111.46519164268207 H 0.0 **** 0.06
16863 H 90.04633840025264 106.93815010129799 110.7075515525456 H 0.0 **** 0.06
16864 H 90.95022488507558 107.8481150404051 111.94146737083275 H 0.0 **** 0.06
16865 H 90.67926057296665 108.5593834579724 110.33225797922375 H 0.0 **** 0.06
16866 C 33.365950059331965 67.03293230029504 42.31215318436003 C 0.0 **** -0.24
16867 H 33.1368287368536 66.84652253557039 43.36094832130581 H 0.0 **** 0.06
16868 H 32.62113243031541 67.70991634524069 41.89307108626437 H 0.0 **** 0.06
16869 H 33.35171934418855 66.0908905255165 41.764227789966384 H 0.0 **** 0.06
16870 H 34.35494033845413 67.48524050591487 42.23115288478293 H 0.0 **** 0.06
16871 C 85.61742120539506 0.46102215349167075 102.37086708993975 C 0.0 **** -0.24
16872 H 85.41709499790448 0.2532196962180766 103.42200553215389 H 0.0 **** 0.06
16873 H 86.69463981864237 0.4543320116515943 102.1988790715775 H 0.0 **** 0.06
16874 H 85.21469877449371 1.4395010624220284 102.10981322832676 H 0.0 **** 0.06
16875 H 85.14639317787302 -0.30263158045975835 101.75290513728788 H 0.0 **** 0.06
16876 C 30.319556064224457 8.527645286741716 8.347961664686434 C 0.0 **** -0.24
16877 H 30.66255184264719 7.949902298762737 7.490740979904668 H 0.0 **** 0.06
16878 H 29.316945196008163 8.201765072681184 8.629418845962899 H 0.0 **** 0.06
16879 H 30.29753583980107 9.586243807577233 8.087877470990428 H 0.0 **** 0.06
16880 H 31.000013774948854 8.373927329896077 9.185550805724219 H 0.0 **** 0.06
16881 C 22.231998128905957 42.45864763888437 58.33859644057969 C 0.0 **** -0.24
16882 H 22.247922644442212 41.916962433324954 57.39250814961942 H 0.0 **** 0.06
16883 H 21.862259477737837 43.470170392387146 58.17104790875547 H 0.0 **** 0.06
16884 H 23.24043214592797 42.50207449193957 58.74873708960003 H 0.0 **** 0.06
16885 H 21.57618722611943 41.943422484717615 59.04015937390601 H 0.0 **** 0.06
16886 C 28.7459993896583 95.73339099740748 26.65744867932608 C 0.0 **** -0.24
16887 H 28.59977743908268 94.91324256384014 27.36076453291477 H 0.0 **** 0.06
16888 H 29.447061932332815 95.42608597496283 25.881612105153835 H 0.0 **** 0.06
16889 H 29.145091685184582 96.59893444976099 27.186745731059546 H 0.0 **** 0.06
16890 H 27.79028565465373 95.99561192060352 26.201988475600956 H 0.0 **** 0.06
16891 C 103.22595021329431 75.38826774934513 40.70811684085634 C 0.0 **** -0.24
16892 H 103.93950110895122 75.83227589058703 40.01533097505759 H 0.0 **** 0.06
16893 H 102.2252677759032 75.7607996196321 40.48805966430488 H 0.0 **** 0.06
16894 H 103.49631203202995 75.6567249589838 41.73019060441692 H 0.0 **** 0.06
16895 H 103.24160664656625 74.30343484604037 40.60081844088479 H 0.0 **** 0.06
16896 C 99.54642736569916 34.30967082655198 96.63105250634584 C 0.0 **** -0.24
16897 H 100.34090885716068 35.03790325879626 96.79585901885528 H 0.0 **** 0.06
16898 H 99.90125776915416 33.53448054312241 95.95062692328739 H 0.0 **** 0.06
16899 H 98.68087759051197 34.808483544947876 96.19529005292242 H 0.0 **** 0.06
16900 H 99.26547998121985 33.85803879282875 97.58260153644528 H 0.0 **** 0.06
16901 C 75.68154464005895 70.08012052315937 57.828335069216095 C 0.0 **** -0.24
16902 H 76.666876584933 69.87620751789467 57.4096169103633 H 0.0 **** 0.06
16903 H 75.03174407463285 69.22013218754361 57.664216837560105 H 0.0 **** 0.06
16904 H 75.25404463555178 70.95707441994972 57.34118505576913 H 0.0 **** 0.06
16905 H 75.77213749365654 70.26794876290319 58.89774560882182 H 0.0 **** 0.06
16906 C 126.21641871915429 116.92270892813679 45.07784192902521 C 0.0 **** -0.24
16907 H 125.5760845030857 117.41909668198684 44.34913779011911 H 0.0 **** 0.06
16908 H 126.45845355556688 115.92044127348049 44.72614307499813 H 0.0 **** 0.06
16909 H 125.69573077073167 116.8574580907815 46.033407666865635 H 0.0 **** 0.06
16910 H 127.13515028631102 117.49541261794789 45.20335784257811 H 0.0 **** 0.06
16911 C 108.69107533736232 47.384530975071414 14.98749565943939 C 0.0 **** -0.24
16912 H 109.32770788468201 47.20058090988073 14.121903458190559 H 0.0 **** 0.06
16913 H 109.06245870631616 48.25259721159284 15.53377028946079 H 0.0 **** 0.06
16914 H 108.70322822297831 46.51135709922099 15.639424436964475 H 0.0 **** 0.06
16915 H 107.67059684509394 47.57424366319526 14.654195146028428 H 0.0 **** 0.06
16916 C 74.95432955649116 9.317783397260964 129.57318749149542 C 0.0 **** -0.24
16917 H 74.80905468355863 8.778634694125113 128.6374149119072 H 0.0 **** 0.06
16918 H 75.10565359981734 8.604624966905348 130.38454601369938 H 0.0 **** 0.06
16919 H 74.07327151875572 9.925180810470572 129.782862586109 H 0.0 **** 0.06
16920 H 75.8283803143876 9.9631548814675 129.4888586089026 H 0.0 **** 0.06
16921 C 115.50419980945024 39.52557225220107 121.80343792300158 C 0.0 **** -0.24
16922 H 116.05029004480609 40.02578192782079 121.00366595393115 H 0.0 **** 0.06
16923 H 115.93221406110709 39.80562800910644 122.76612377997836 H 0.0 **** 0.06
16924 H 115.57655328832325 38.44623526124332 121.67259045391006 H 0.0 **** 0.06
16925 H 114.45585240547224 39.82608200537965 121.76953789487388 H 0.0 **** 0.06
16926 C 4.88724506043485 32.30580790103903 108.64576546903317 C 0.0 **** -0.24
16927 H 5.960113630024182 32.39451611043256 108.47491946897331 H 0.0 **** 0.06
16928 H 4.552121979575645 31.31515483118028 108.34096487570409 H 0.0 **** 0.06
16929 H 4.363701505976678 33.063149166879896 108.0613153965371 H 0.0 **** 0.06
16930 H 4.67471081507523 32.452954206051515 109.70499380487325 H 0.0 **** 0.06
16931 C 126.98310040517518 21.16559402358358 77.52651599334644 C 0.0 **** -0.24
16932 H 127.76839681981394 20.456275311230357 77.26638344831784 H 0.0 **** 0.06
16933 H 127.41004101270815 22.165006721871784 77.61141862899504 H 0.0 **** 0.06
16934 H 126.53448396784225 20.878977440844785 78.47773032385842 H 0.0 **** 0.06
16935 H 126.21918240180062 21.16153542497385 76.74892722750283 H 0.0 **** 0.06
16936 C 130.6734064517258 80.24028985001827 26.77213198591516 C 0.0 **** -0.24
16937 H 129.59273620757378 80.16609272736238 26.891354677179137 H 0.0 **** 0.06
16938 H 131.05123733938265 79.33031804129527 26.305510488533507 H 0.0 **** 0.06
16939 H 131.13952044852354 80.3689155884427 27.74915227553523 H 0.0 **** 0.06
16940 H 130.91012700081095 81.09762290285661 26.141617976642294 H 0.0 **** 0.06
16941 C 24.73412776482118 101.78323754625474 29.635712061656477 C 0.0 **** -0.24
16942 H 24.921829804818856 102.84815461139856 29.774525184981428 H 0.0 **** 0.06
16943 H 24.072206722297864 101.63924381953268 28.781701631008218 H 0.0 **** 0.06
16944 H 24.2647258188897 101.37777568644485 30.532809070002145 H 0.0 **** 0.06
16945 H 25.678635745702294 101.26919706274147 29.456091481956207 H 0.0 **** 0.06
16946 C 63.21399088438943 92.50143639289233 30.54650149933832 C 0.0 **** -0.24
16947 H 63.26595539474408 93.57259963721364 30.352593169619922 H 0.0 **** 0.06
16948 H 62.170978220163136 92.18335286861412 30.55342821098185 H 0.0 **** 0.06
16949 H 63.665838146894316 92.28512429606504 31.513910165286347 H 0.0 **** 0.06
16950 H 63.75212484209152 91.96445343258469 29.765171459553756 H 0.0 **** 0.06
16951 C 1.3371570200616816 5.085421461967503 102.98215406359542 C 0.0 **** -0.24
16952 H 2.3381069348816084 4.73414683227832 102.73207836084981 H 0.0 **** 0.06
16953 H 1.388873331920962 6.126851953768593 103.30163879209428 H 0.0 **** 0.06
16954 H 0.930391199764216 4.476313216999376 103.78931029117935 H 0.0 **** 0.06
16955 H 0.6940616665761468 5.005330218596416 102.10605521244412 H 0.0 **** 0.06
16956 C 61.97454304085801 112.98152582401146 61.93891844364006 C 0.0 **** -0.24
16957 H 62.58139836871828 113.5523470173395 62.64283770778192 H 0.0 **** 0.06
16958 H 62.09919165523816 111.91608984607372 62.13428837968394 H 0.0 **** 0.06
16959 H 62.293136323706605 113.20449564992892 60.92088395550397 H 0.0 **** 0.06
16960 H 60.92623041808618 113.25414195771926 62.05987110949255 H 0.0 **** 0.06
16961 C 82.5659691206275 92.19864364544947 106.2970551175233 C 0.0 **** -0.24
16962 H 82.4340521145084 92.96440269211757 107.06211884823192 H 0.0 **** 0.06
16963 H 82.09939317657464 91.27046713358163 106.62928516379736 H 0.0 **** 0.06
16964 H 83.62983420636456 92.03173213196237 106.13169479978944 H 0.0 **** 0.06
16965 H 82.10079567218023 92.52866136888167 105.3685108802347 H 0.0 **** 0.06
16966 C 28.965185832980836 67.56279368358584 92.65060553896018 C 0.0 **** -0.24
16967 H 29.023193137640646 68.63503172372688 92.45995853417551 H 0.0 **** 0.06
16968 H 28.431910307388392 67.38840743981852 93.58559386587035 H 0.0 **** 0.06
16969 H 29.972514666748708 67.15220710062383 92.72438076256606 H 0.0 **** 0.06
16970 H 28.43357627116478 67.07765145409051 91.83195068846845 H 0.0 **** 0.06
16971 C 82.23510677111342 124.20690933800851 103.39131359439364 C 0.0 **** -0.24
16972 H 82.77408388139362 125.13850678362537 103.2169852249898 H 0.0 **** 0.06
16973 H 81.17973880969073 124.34885763538314 103.15635258581608 H 0.0 **** 0.06
16974 H 82.33934564810131 123.9170316225826 104.43744967685205 H 0.0 **** 0.06
16975 H 82.64740021015933 123.42460801844615 102.75480186576124 H 0.0 **** 0.06
16976 C 13.855767015373033 105.20320673813328 42.86274762052936 C 0.0 **** -0.24
16977 H 14.094893782881798 105.16207341764176 41.799959342045625 H 0.0 **** 0.06
16978 H 13.06007219167293 105.92983171758443 43.028477470493904 H 0.0 **** 0.06
16979 H 14.74209986435443 105.49924755018634 43.42355540160001 H 0.0 **** 0.06
16980 H 13.525470431567612 104.21930536371245 43.19867295174106 H 0.0 **** 0.06
16981 C 70.67970907390864 71.4681513606529 53.356737275944994 C 0.0 **** -0.24
16982 H 71.31463920397894 70.74620520251091 52.84176346614629 H 0.0 **** 0.06
16983 H 70.77861826706001 72.44340423887557 52.88190449737169 H 0.0 **** 0.06
16984 H 70.98388434739007 71.53774087256807 54.40072871588234 H 0.0 **** 0.06
16985 H 69.64104878291076 71.14040010451049 53.30243769777681 H 0.0 **** 0.06
16986 C 54.70054213000006 82.15227828278978 80.6193060527321 C 0.0 **** -0.24
16987 H 55.140371372652524 83.10609556297334 80.90960808313037 H 0.0 **** 0.06
16988 H 53.616504587169416 82.20474391313428 80.72509115440494 H 0.0 **** 0.06
16989 H 55.0901138457039 81.36135870074122 81.26068472043289 H 0.0 **** 0.06
16990 H 54.95504439892957 81.93630436725027 79.58105974112436 H 0.0 **** 0.06
16991 C 80.19713509263659 14.163146073395836 69.49937267064844 C 0.0 **** -0.24
16992 H 80.04147595672717 14.946544451712185 68.75791487580761 H 0.0 **** 0.06
16993 H 79.63946049713519 13.2720675395351 69.20767132667207 H 0.0 **** 0.06
16994 H 79.848076445344 14.50844701079015 70.47252928362043 H 0.0 **** 0.06
16995 H 81.25923857617282 13.924687620065242 69.55827294517393 H 0.0 **** 0.06
16996 C 16.520355647329836 87.48019156456829 20.680787297135225 C 0.0 **** -0.24
16997 H 17.24214075894116 87.64097680602711 21.48164423426661 H 0.0 **** 0.06
16998 H 16.99429772968807 86.92366132887614 19.871736919141114 H 0.0 **** 0.06
16999 H 16.173523044776516 88.44314904882023 20.305068605958297 H 0.0 **** 0.06
17000 H 15.672725276877372 86.91335748502868 21.064190840182988 H 0.0 **** 0.06
17001 C 48.535463213368644 39.35457523964658 47.20893551659972 C 0.0 **** -0.24
17002 H 48.21695238148277 40.20697326338603 46.60958012826441 H 0.0 **** 0.06
17003 H 48.957639134554285 39.71000233600158 48.149555848581116 H 0.0 **** 0.06
17004 H 49.29037595345912 38.78897364400254 46.663003245299905 H 0.0 **** 0.06
17005 H 47.67852450930357 38.71385737259928 47.413818584140614 H 0.0 **** 0.06
17006 C 112.4670191209835 70.91219004955258 123.2126152187874 C 0.0 **** -0.24
17007 H 112.09792571901481 69.91647623072072 122.96319063863073 H 0.0 **** 0.06
17008 H 113.46465811984659 70.83155685482066 123.6447809401059 H 0.0 **** 0.06
17009 H 111.79495778751475 71.37825962512113 123.9317167877575 H 0.0 **** 0.06
17010 H 112.51055235057441 71.51980119160879 122.3081473718498 H 0.0 **** 0.06
17011 C 94.92816751705303 31.09340526265393 103.8840040768903 C 0.0 **** -0.24
17012 H 93.98384779806602 30.611205301022153 104.13516118335687 H 0.0 **** 0.06
17013 H 95.14470680128642 30.9409560434336 102.8261806036442 H 0.0 **** 0.06
17014 H 95.72854025699085 30.661021973481127 104.48509947768865 H 0.0 **** 0.06
17015 H 94.85633810818373 32.16158398647431 104.08989784830396 H 0.0 **** 0.06
17016 C 25.00629965803833 129.32084813994072 117.93743757810427 C 0.0 **** -0.24
17017 H 24.257544372133992 128.54609585253843 118.1047245383123 H 0.0 **** 0.06
17018 H 25.998233110315198 128.86917805967786 117.92295873084313 H 0.0 **** 0.06
17019 H 24.952366468391716 130.05618883482836 118.73975964644934 H 0.0 **** 0.06
17020 H 24.814670412567153 129.80907782810914 116.98273428043692 H 0.0 **** 0.06
17021 C 33.7870458955953 88.10758825225997 97.28922474052797 C 0.0 **** -0.24
17022 H 33.54036062770179 88.99774540596931 96.71067648713245 H 0.0 **** 0.06
17023 H 32.92358011826094 87.44195564915671 97.31694894978568 H 0.0 **** 0.06
17024 H 34.05546855215967 88.39794286970579 98.30451331571692 H 0.0 **** 0.06
17025 H 34.62784191741612 87.5933235128106 96.82389229158807 H 0.0 **** 0.06
17026 C 70.73642020673499 75.1350998191337 108.68811956912685 C 0.0 **** -0.24
17027 H 70.28058531429265 76.11340333094522 108.8410648790252 H 0.0 **** 0.06
17028 H 71.62986602341195 75.24474754519537 108.07227178053498 H 0.0 **** 0.06
17029 H 70.02677490456671 74.47878243801713 108.18506641950529 H 0.0 **** 0.06
17030 H 71.00902442052873 74.7064396132812 109.65187668187906 H 0.0 **** 0.06
17031 C 27.394376966869686 124.5046392909664 84.77305907470986 C 0.0 **** -0.24
17032 H 27.967793917777385 124.1090726861425 85.61083438932576 H 0.0 **** 0.06
17033 H 26.741776016125144 125.30432599093581 85.12571293175813 H 0.0 **** 0.06
17034 H 26.79150963396438 123.70805849827605 84.33789881982204 H 0.0 **** 0.06
17035 H 28.07627925410995 124.89817856080845 84.01869269831315 H 0.0 **** 0.06
17036 C 77.08821146307734 88.5437370714522 109.57969217772009 C 0.0 **** -0.24
17037 H 77.73141077565386 88.01508687899201 110.2826893666363 H 0.0 **** 0.06
17038 H 77.32032974968159 88.22255903163682 108.56384706833654 H 0.0 **** 0.06
17039 H 77.2568880436153 89.61715483264669 109.66975898191313 H 0.0 **** 0.06
17040 H 76.04508382873944 88.31994822158993 109.80201566290489 H 0.0 **** 0.06
17041 C 22.850277628832515 109.55732907554759 76.73448255099764 C 0.0 **** -0.24
17042 H 22.98802616226996 108.47607121288334 76.77476078158543 H 0.0 **** 0.06
17043 H 22.188925556573167 109.86924306709699 77.5436936768517 H 0.0 **** 0.06
17044 H 22.407560687432607 109.83132692513794 75.77668957922396 H 0.0 **** 0.06
17045 H 23.81626765689279 110.05057919221315 76.8434920444614 H 0.0 **** 0.06
17046 C 2.305943349956408 98.78139432903285 54.14633251331122 C 0.0 **** -0.24
17047 H 2.035567328531897 99.4252154761539 54.98241057493695 H 0.0 **** 0.06
17048 H 2.410984972731967 99.38403786649353 53.24288211377505 H 0.0 **** 0.06
17049 H 1.5263311441378278 98.03415839162568 53.99612010831956 H 0.0 **** 0.06
17050 H 3.250541409125219 98.28188698750061 54.36172609645075 H 0.0 **** 0.06
17051 C 82.58995075256631 86.28251662443529 57.33433882982382 C 0.0 **** -0.24
17052 H 81.96577072818258 85.85036135491521 56.55198430112222 H 0.0 **** 0.06
17053 H 81.98603588062797 86.46067722312159 58.22374597193635 H 0.0 **** 0.06
17054 H 83.0087271603951 87.22659966018853 56.983379988038564 H 0.0 **** 0.06
17055 H 83.39937686637602 85.59373935540611 57.57536929676027 H 0.0 **** 0.06
17056 C 106.64342680395322 77.61231316874563 4.581706350494358 C 0.0 **** -0.24
17057 H 106.02083506857207 77.0150483144566 5.2471532996140695 H 0.0 **** 0.06
17058 H 106.00866417727008 78.17086485795524 3.8941040923489254 H 0.0 **** 0.06
17059 H 107.30422307160188 76.95529384387868 4.015502840806619 H 0.0 **** 0.06
17060 H 107.24114997370083 78.30803983914087 5.171346860844039 H 0.0 **** 0.06
17061 C 89.40906035585522 59.058166877749954 26.388225635680982 C 0.0 **** -0.24
17062 H 88.43211332047808 59.2538541756208 26.833091438226603 H 0.0 **** 0.06
17063 H 89.46529394643974 59.539547976660174 25.412124480066865 H 0.0 **** 0.06
17064 H 89.54608918261586 57.98270330972724 26.27288822779971 H 0.0 **** 0.06
17065 H 90.18855256517351 59.45733178050125 27.03675606193994 H 0.0 **** 0.06
17066 C 77.6021080249609 72.43889411073727 5.324783855465 C 0.0 **** -0.24
17067 H 78.3989800586738 71.70440946126963 5.444482519977214 H 0.0 **** 0.06
17068 H 77.15780236540166 72.33207019132145 4.334364907308611 H 0.0 **** 0.06
17069 H 78.01441119601205 73.44212836626514 5.431753864649323 H 0.0 **** 0.06
17070 H 76.84024281299567 72.27528248351564 6.086268619542608 H 0.0 **** 0.06
17071 C 72.83264396867372 97.52222392867915 128.60020610977114 C 0.0 **** -0.24
17072 H 72.18733882913119 96.81558650668072 129.1234387349872 H 0.0 **** 0.06
17073 H 73.87353228340757 97.32045603551758 128.85413076999163 H 0.0 **** 0.06
17074 H 72.57646852741252 98.53800335985879 128.90093147801 H 0.0 **** 0.06
17075 H 72.69207643245741 97.41499108179106 127.52447641624016 H 0.0 **** 0.06
17076 C 29.88906441036272 103.88382879863371 29.179341292777707 C 0.0 **** -0.24
17077 H 30.038121305502898 102.80512037909995 29.22399150755168 H 0.0 **** 0.06
17078 H 28.874689574293114 104.09586129115752 28.84218056682623 H 0.0 **** 0.06
17079 H 30.603366701449005 104.31951431877695 28.480752835510714 H 0.0 **** 0.06
17080 H 30.041033467766766 104.31215729483387 30.170364807794343 H 0.0 **** 0.06
17081 C 113.11528649047564 52.6254045858242 93.81822376809642 C 0.0 **** -0.24
17082 H 113.2523782866429 53.61959094549324 94.24318350021463 H 0.0 **** 0.06
17083 H 112.82081671671365 51.93121054863559 94.6049699990432 H 0.0 **** 0.06
17084 H 114.05017071556294 52.29101815115658 93.36934447072151 H 0.0 **** 0.06
17085 H 112.33724457523306 52.66196351870394 93.0552331171094 H 0.0 **** 0.06
17086 C 79.93082326165478 62.23646500972866 105.9504006157542 C 0.0 **** -0.24
17087 H 79.58542682709938 63.038264089030974 105.29676762806587 H 0.0 **** 0.06
17088 H 80.16357850352742 61.355376712235426 105.352714362207 H 0.0 **** 0.06
17089 H 79.14742884496275 61.99260841607514 106.6681454395143 H 0.0 **** 0.06
17090 H 80.8237965457767 62.56121675446508 106.48295333320874 H 0.0 **** 0.06
17091 C 46.03259084651752 69.03427811015712 80.16193068692954 C 0.0 **** -0.24
17092 H 45.66954290385947 68.87066392715295 79.14716319009375 H 0.0 **** 0.06
17093 H 45.26392059105923 68.73437201936599 80.87465074553346 H 0.0 **** 0.06
17094 H 46.263744766292525 70.08991244278155 80.29938035661019 H 0.0 **** 0.06
17095 H 46.932561279959955 68.44090905058556 80.32625932118187 H 0.0 **** 0.06
17096 C 129.64080734977028 22.00128987989646 98.31252669322126 C 0.0 **** -0.24
17097 H 129.31396478152675 22.571992563755437 97.4432236055742 H 0.0 **** 0.06
17098 H 129.3772350007263 20.9522225091126 98.17796169393283 H 0.0 **** 0.06
17099 H 129.15091665035388 22.38695621054692 99.20623470869357 H 0.0 **** 0.06
17100 H 130.72138125565684 22.093255606020726 98.42206120099735 H 0.0 **** 0.06
17101 C 122.85410141790081 84.1888327489022 3.67385611537307 C 0.0 **** -0.24
17102 H 122.18712302393678 85.04748318193617 3.5941582652902895 H 0.0 **** 0.06
17103 H 123.75342034692349 84.47737674060863 4.2173745249868375 H 0.0 **** 0.06
17104 H 123.12675196861481 83.84701173265971 2.6754270812232335 H 0.0 **** 0.06
17105 H 122.34849908633223 83.38406484122712 4.207342155482124 H 0.0 **** 0.06
17106 C 57.67985507673035 8.47878322498789 106.32118191649317 C 0.0 **** -0.24
17107 H 56.65864784729273 8.57939364411893 106.6893569186414 H 0.0 **** 0.06
17108 H 57.66751691488061 8.004368094977668 105.3399721948803 H 0.0 **** 0.06
17109 H 58.256867502549795 7.866356174218435 107.01384072132153 H 0.0 **** 0.06
17110 H 58.13652129063311 9.466017798667927 106.24355204591988 H 0.0 **** 0.06
17111 C 19.14492590394569 118.84665167353371 92.4612492378424 C 0.0 **** -0.24
17112 H 20.046059951622503 118.30128503364206 92.7422921979813 H 0.0 **** 0.06
17113 H 18.90706198476373 118.63975244604308 91.41750934057708 H 0.0 **** 0.06
17114 H 19.311453185826878 119.9150992335135 92.59222959566807 H 0.0 **** 0.06
17115 H 18.31548610507243 118.52760342958474 93.09377544724705 H 0.0 **** 0.06
17116 C 126.71020378547696 47.72534373951095 89.62825864472421 C 0.0 **** -0.24
17117 H 126.470566252592 48.1716942844219 90.59321071395746 H 0.0 **** 0.06
17118 H 126.4904178673165 48.43949213998076 88.83395848431711 H 0.0 **** 0.06
17119 H 126.11072193870663 46.82556035497305 89.48543736552435 H 0.0 **** 0.06
17120 H 127.7677603828386 47.46490403171816 89.60075208928441 H 0.0 **** 0.06
17121 C 52.1741719023492 59.70458413935718 55.14274071572058 C 0.0 **** -0.24
17122 H 51.34696658676813 60.40702992030384 55.25254897085628 H 0.0 **** 0.06
17123 H 51.78657869954003 58.73403168559513 54.83321219033925 H 0.0 **** 0.06
17124 H 52.692116497090694 59.60259340827277 56.0969072699194 H 0.0 **** 0.06
17125 H 52.869060605776156 60.07609832245653 54.390063937269076 H 0.0 **** 0.06
17126 C 26.83332888713008 99.63057560218078 3.1263744957074096 C 0.0 **** -0.24
17127 H 27.600361568261434 98.85677248821497 3.1670821577645256 H 0.0 **** 0.06
17128 H 26.68723501000403 100.05038344204041 4.121868068542824 H 0.0 **** 0.06
17129 H 25.897934649048494 99.19629620558877 2.773960711425417 H 0.0 **** 0.06
17130 H 27.147954144901036 100.4184402927284 2.4416908686978047 H 0.0 **** 0.06
17131 C 93.68761051258711 69.84766499435712 98.3190833871889 C 0.0 **** -0.24
17132 H 94.49973045257533 69.66896335636943 99.02443326281364 H 0.0 **** 0.06
17133 H 93.99004669262173 70.61648866336945 97.60705313972586 H 0.0 **** 0.06
17134 H 92.80292144936588 70.18158099125628 98.86020885870457 H 0.0 **** 0.06
17135 H 93.46111380652255 68.92585942144925 97.78382721929712 H 0.0 **** 0.06
17136 C 50.948992892190276 22.094773075884575 125.32250033343334 C 0.0 **** -0.24
17137 H 50.48064377273147 22.612666761234408 124.48478930270909 H 0.0 **** 0.06
17138 H 51.61045891031628 22.78244854149196 125.84926652460942 H 0.0 **** 0.06
17139 H 51.5256901998423 21.248535368240454 124.95008472235017 H 0.0 **** 0.06
17140 H 50.178403207934366 21.737572328197444 126.00493390445283 H 0.0 **** 0.06
17141 C 78.07316493543767 56.46523813830402 52.917683340366295 C 0.0 **** -0.24
17142 H 77.06929947585402 56.045325370415924 52.85999593451629 H 0.0 **** 0.06
17143 H 78.80697648691908 55.66083546204385 52.8620736217062 H 0.0 **** 0.06
17144 H 78.19046526892681 57.000097206811006 53.86047648377573 H 0.0 **** 0.06
17145 H 78.22705082207146 57.15546900775482 52.087843605413354 H 0.0 **** 0.06
17146 C 74.49747719434552 102.47003370968719 125.62915975472013 C 0.0 **** -0.24
17147 H 74.35798537902174 101.39099898424047 125.70327877771831 H 0.0 **** 0.06
17148 H 74.1032606173367 102.94883808693935 126.52572383493263 H 0.0 **** 0.06
17149 H 73.96744112958945 102.84506940300977 124.75337525175449 H 0.0 **** 0.06
17150 H 75.56011915971702 102.69243911867369 125.53418957971058 H 0.0 **** 0.06
17151 C 65.53820151740432 14.061850763907387 55.633769370516276 C 0.0 **** -0.24
17152 H 64.79246513697854 14.420195728606757 54.92499469595187 H 0.0 **** 0.06
17153 H 65.07132905206089 13.367916575587799 56.33331204700467 H 0.0 **** 0.06
17154 H 65.95389057435207 14.907429798825262 56.18239603036467 H 0.0 **** 0.06
17155 H 66.33652140654095 13.551735459922497 55.09452989440844 H 0.0 **** 0.06
17156 C 21.84400437990105 65.36740999078577 16.57275958908501 C 0.0 **** -0.24
17157 H 22.378929565266688 64.50897132216922 16.978751653208633 H 0.0 **** 0.06
17158 H 21.7322442750024 66.12625716020234 17.34686300116094 H 0.0 **** 0.06
17159 H 20.859131823340363 65.05103275924347 16.227461122077713 H 0.0 **** 0.06
17160 H 22.40612431001138 65.78153043181537 15.735429939706478 H 0.0 **** 0.06
17161 C 120.32703467531684 114.41255762422091 101.73351988372536 C 0.0 **** -0.24
17162 H 120.966120591461 113.88336848214001 101.02750823549805 H 0.0 **** 0.06
17163 H 120.12764803817889 113.77411532798274 102.59385519133087 H 0.0 **** 0.06
17164 H 119.38591078338871 114.67139609185918 101.24688139660442 H 0.0 **** 0.06
17165 H 120.82700040720309 115.3234480337637 102.06426215943843 H 0.0 **** 0.06
17166 C 102.17741658209711 41.23533320881113 16.391677155816588 C 0.0 **** -0.24
17167 H 102.61305441838068 42.205351624749646 16.15486637721261 H 0.0 **** 0.06
17168 H 102.0916935003154 40.64318273275506 15.479717220385432 H 0.0 **** 0.06
17169 H 101.18741399273694 41.378673302856534 16.826129722584696 H 0.0 **** 0.06
17170 H 102.81577577198327 40.71506610403425 17.104933833046843 H 0.0 **** 0.06
17171 C 40.760820956246874 108.85198100120738 99.35290212676085 C 0.0 **** -0.24
17172 H 39.73811078185727 109.06389441981185 99.03946772085038 H 0.0 **** 0.06
17173 H 41.03832386303793 107.8478677284943 99.03044871171022 H 0.0 **** 0.06
17174 H 40.828773885396544 108.91676155470878 100.43843347041042 H 0.0 **** 0.06
17175 H 41.436178113370445 109.57919874620069 98.90209226016998 H 0.0 **** 0.06
17176 C 54.86268947541572 59.81849858809011 67.0814526595795 C 0.0 **** -0.24
17177 H 54.61844955969576 60.450874241535274 67.93400838860356 H 0.0 **** 0.06
17178 H 55.23440069410498 58.85668914136981 67.43670032389608 H 0.0 **** 0.06
17179 H 55.629046811620185 60.30320449629056 66.47583550614576 H 0.0 **** 0.06
17180 H 53.96763686400658 59.66266419089277 66.4781774300206 H 0.0 **** 0.06
17181 C 27.042010487024143 8.405265370578661 71.0100706422557 C 0.0 **** -0.24
17182 H 26.100938115052152 8.167680434499573 70.51182293050027 H 0.0 **** 0.06
17183 H 27.485394879387073 7.490457801268121 71.4034329010588 H 0.0 **** 0.06
17184 H 26.85289232772984 9.098687284506582 71.82944896387153 H 0.0 **** 0.06
17185 H 27.725181858915008 8.86337495465989 70.29535887099712 H 0.0 **** 0.06
17186 C 58.001650025836256 96.30752288802475 63.203380664220816 C 0.0 **** -0.24
17187 H 58.948281763261434 96.08131649231066 62.7113089587244 H 0.0 **** 0.06
17188 H 58.041159344207685 95.96898693881266 64.23921122517814 H 0.0 **** 0.06
17189 H 57.191430188816824 95.7964486407615 62.683847826757216 H 0.0 **** 0.06
17190 H 57.828106236378034 97.38387121847913 63.1788988729904 H 0.0 **** 0.06
17191 C 90.18855317956876 62.24534357563138 24.94741910333903 C 0.0 **** -0.24
17192 H 90.96661338481839 61.540100893619865 24.65405996268774 H 0.0 **** 0.06
17193 H 89.58992058705172 61.81191029285631 25.748023267265552 H 0.0 **** 0.06
17194 H 89.55046836232583 62.45752772724646 24.089192352167203 H 0.0 **** 0.06
17195 H 90.64934483901672 63.169848304197785 25.295485947356525 H 0.0 **** 0.06
17196 C 36.74261022967133 86.24989573220816 47.21800625692102 C 0.0 **** -0.24
17197 H 35.9123451025049 85.54606955896568 47.15965381992093 H 0.0 **** 0.06
17198 H 37.20126337726359 86.35158530244479 46.23504139224126 H 0.0 **** 0.06
17199 H 37.48211525274871 85.87937088192584 47.92812113745283 H 0.0 **** 0.06
17200 H 36.37366736857851 87.21920568976569 47.550499469564464 H 0.0 **** 0.06
17201 C 90.2241264200344 13.323864907857057 103.38844305706863 C 0.0 **** -0.24
17202 H 91.1420834991533 12.747539474164057 103.27841034401374 H 0.0 **** 0.06
17203 H 90.047676869737 13.902318017411801 102.48055642753326 H 0.0 **** 0.06
17204 H 90.31987306577925 14.000581706023752 104.23742092009826 H 0.0 **** 0.06
17205 H 89.38671872020836 12.64584221454902 103.55624382705142 H 0.0 **** 0.06
17206 C 77.8308219990177 46.850725254521855 85.471089350018 C 0.0 **** -0.24
17207 H 77.12630045669837 47.67209546394499 85.33968214183444 H 0.0 **** 0.06
17208 H 78.84272370642483 47.207175789006634 85.28063102268955 H 0.0 **** 0.06
17209 H 77.58947136759511 46.04908602637343 84.77294903465463 H 0.0 **** 0.06
17210 H 77.76396484361771 46.47473167898552 86.49260513088647 H 0.0 **** 0.06
17211 C 111.3445767551068 114.27847577782887 129.70840216381833 C 0.0 **** -0.24
17212 H 111.53723421990168 113.28949821378677 130.12454993064767 H 0.0 **** 0.06
17213 H 111.53745270781184 114.26414946478008 128.63506103927136 H 0.0 **** 0.06
17214 H 111.99813355679186 115.00767803461792 130.1854199319331 H 0.0 **** 0.06
17215 H 110.30462266151864 114.55134746268169 129.8866435053759 H 0.0 **** 0.06
17216 C 55.8554248992309 24.85287006121589 25.582180842711068 C 0.0 **** -0.24
17217 H 56.84214705892555 25.306162479647462 25.677427029991108 H 0.0 **** 0.06
17218 H 55.89256515655774 24.056714055372765 24.83802781010928 H 0.0 **** 0.06
17219 H 55.13574552433039 25.609611161702468 25.26920640480691 H 0.0 **** 0.06
17220 H 55.55174317683833 24.438708401452615 26.543244816241213 H 0.0 **** 0.06
17221 C 106.71340330919165 23.696652471198746 12.058638595739183 C 0.0 **** -0.24
17222 H 107.25883681079793 24.36056447892841 11.387896011072257 H 0.0 **** 0.06
17223 H 106.76107451697 22.675927748377717 11.677167687796327 H 0.0 **** 0.06
17224 H 105.67215407901166 24.01441854612895 12.116752768722051 H 0.0 **** 0.06
17225 H 107.16073564897424 23.73474347227196 13.052084288687354 H 0.0 **** 0.06
17226 C 92.6561042914449 34.60366968593041 91.05757507766928 C 0.0 **** -0.24
17227 H 91.88194551014551 33.83701673200022 91.08366875557965 H 0.0 **** 0.06
17228 H 93.62724488109535 34.14536481901564 91.24455923409167 H 0.0 **** 0.06
17229 H 92.45326076406737 35.35111152342648 91.82413012103575 H 0.0 **** 0.06
17230 H 92.66196601047126 35.08118566927948 90.07794219997004 H 0.0 **** 0.06
17231 C 42.90074786767261 0.7549242677167172 48.34262702514141 C 0.0 **** -0.24
17232 H 41.95949078550464 0.5976505419581315 48.86805301963793 H 0.0 **** 0.06
17233 H 43.724306242119525 0.7319155083313547 49.0561076873979 H 0.0 **** 0.06
17234 H 42.87975182191809 1.7242822784097882 47.84311950087606 H 0.0 **** 0.06
17235 H 43.03983960600286 -0.03176826751672479 47.60144905490938 H 0.0 **** 0.06
17236 C 87.3394056933571 115.17149639289514 9.36834020692341 C 0.0 **** -0.24
17237 H 86.72313307979141 114.742214261555 10.158742906057999 H 0.0 **** 0.06
17238 H 86.71463052028709 115.77030356653742 8.705641617444662 H 0.0 **** 0.06
17239 H 87.80993520373985 114.36886705137809 8.79913402824242 H 0.0 **** 0.06
17240 H 88.10987310792643 115.8020869213909 9.811479002377396 H 0.0 **** 0.06
17241 C 24.51858338351944 66.97530464589084 23.526414950878603 C 0.0 **** -0.24
17242 H 25.093033122856383 67.30856307411605 24.3904605284512 H 0.0 **** 0.06
17243 H 23.69423646584449 66.34417543916487 23.858740943146273 H 0.0 **** 0.06
17244 H 25.16575881256798 66.40618503239718 22.857869224808667 H 0.0 **** 0.06
17245 H 24.12311015060397 67.84160929257108 22.99708179167365 H 0.0 **** 0.06
17246 C 38.696825400038975 37.25090342102669 70.8580821497215 C 0.0 **** -0.24
17247 H 39.21860096997593 36.540625009619134 71.49892633104417 H 0.0 **** 0.06
17248 H 39.253171786225366 37.37659274194053 69.92815931785583 H 0.0 **** 0.06
17249 H 38.61809755079668 38.21112394963308 71.36716062261615 H 0.0 **** 0.06
17250 H 37.698498983821835 36.87370516455397 70.63575732835557 H 0.0 **** 0.06
17251 C 45.30016501794927 94.9245099322412 45.92020078128451 C 0.0 **** -0.24
17252 H 44.30615776647477 94.48220291897795 45.992902970418925 H 0.0 **** 0.06
17253 H 45.98376085780086 94.20954206756505 45.463278355964974 H 0.0 **** 0.06
17254 H 45.6558825548903 95.18248187620523 46.91712400534843 H 0.0 **** 0.06
17255 H 45.25208587234226 95.82533252401669 45.30753726667453 H 0.0 **** 0.06
17256 C 109.5459278172683 104.05233962230261 39.64487428833404 C 0.0 **** -0.24
17257 H 110.33839623748266 103.51517602858343 39.12369432852657 H 0.0 **** 0.06
17258 H 109.26434457233411 103.50236747334668 40.54312704227027 H 0.0 **** 0.06
17259 H 108.6794782629176 104.14692701637631 38.98967514861009 H 0.0 **** 0.06
17260 H 109.90053817708161 105.04458871670187 39.923019345658275 H 0.0 **** 0.06
17261 C 72.35232699252138 123.24210407284977 124.25044205821567 C 0.0 **** -0.24
17262 H 71.75165241206628 123.5802086063598 125.09449052313548 H 0.0 **** 0.06
17263 H 71.69463466373088 122.909790995847 123.44595190522756 H 0.0 **** 0.06
17264 H 72.98879506596467 122.41617966177606 124.56489653451162 H 0.0 **** 0.06
17265 H 72.97304829275518 124.06455651510862 123.89493464951039 H 0.0 **** 0.06
17266 C 26.073087743847445 27.3627062798232 14.207497017008706 C 0.0 **** -0.24
17267 H 25.745944185234258 28.10156485103773 13.476712841840282 H 0.0 **** 0.06
17268 H 26.508544339771852 27.871365533890483 15.0675492147476 H 0.0 **** 0.06
17269 H 26.820632670606443 26.71048350302948 13.754240369322389 H 0.0 **** 0.06
17270 H 25.218694186660038 26.767580960990863 14.52980427837116 H 0.0 **** 0.06
17271 C 58.736934771295864 25.63917704053455 48.23868349584063 C 0.0 **** -0.24
17272 H 57.71816702482914 26.019034811276626 48.161632712585 H 0.0 **** 0.06
17273 H 59.09271767117332 25.758444893147384 49.2626294136233 H 0.0 **** 0.06
17274 H 59.38425954036927 26.19635426257122 47.56112561501908 H 0.0 **** 0.06
17275 H 58.752594848811725 24.582874195142807 47.96934624213549 H 0.0 **** 0.06
17276 C 60.9224335110664 87.58398861928833 88.67552718190122 C 0.0 **** -0.24
17277 H 61.221189124802805 86.53875002258121 88.7514929500198 H 0.0 **** 0.06
17278 H 59.93077283890196 87.71156706645105 89.11039309043714 H 0.0 **** 0.06
17279 H 60.900353304997026 87.88085557254423 87.62659677939753 H 0.0 **** 0.06
17280 H 61.63806776796574 88.20603017501958 89.2137691539107 H 0.0 **** 0.06
17281 C 57.955217644206215 92.44344557414934 64.66764028843454 C 0.0 **** -0.24
17282 H 56.920509613574694 92.69964203370847 64.8951378270396 H 0.0 **** 0.06
17283 H 58.13014514053643 91.39411419436681 64.90321075559984 H 0.0 **** 0.06
17284 H 58.623484551441976 93.06659970012294 65.26329105447854 H 0.0 **** 0.06
17285 H 58.14683329915883 92.61583384687984 63.60848109254127 H 0.0 **** 0.06
17286 C 127.87551696591322 120.83174068447588 56.47626189788366 C 0.0 **** -0.24
17287 H 127.836728247206 121.77662232963597 57.017795416228125 H 0.0 **** 0.06
17288 H 128.79587410958595 120.30519443438608 56.729036995368574 H 0.0 **** 0.06
17289 H 127.8502823509632 121.02670303527407 55.40457149794639 H 0.0 **** 0.06
17290 H 127.01814371759735 120.21888099953284 56.75495815469674 H 0.0 **** 0.06
17291 C 4.592931666422885 39.203479957466755 80.8840787748199 C 0.0 **** -0.24
17292 H 5.48888887354542 39.662393809017914 81.30100104225842 H 0.0 **** 0.06
17293 H 3.997604701584521 38.77240718152768 81.68973168038282 H 0.0 **** 0.06
17294 H 4.879135204501097 38.41888475172101 80.18351016395488 H 0.0 **** 0.06
17295 H 4.006335488872992 39.95888677765245 80.36243055987123 H 0.0 **** 0.06
17296 C 61.85031252892395 86.76970289350768 66.72325255986445 C 0.0 **** -0.24
17297 H 62.450706210637065 86.39385051287985 65.89523997417206 H 0.0 **** 0.06
17298 H 61.053441666411686 86.06010218279621 66.94609585613118 H 0.0 **** 0.06
17299 H 61.41594423878428 87.73166620284823 66.45000306966237 H 0.0 **** 0.06
17300 H 62.48225579371491 86.89380227403447 67.60352161461753 H 0.0 **** 0.06
17301 C 23.748035092692362 93.93072984996537 4.948464445643424 C 0.0 **** -0.24
17302 H 23.139287329313447 93.58129549360731 5.782266730211404 H 0.0 **** 0.06
17303 H 23.744151317834934 93.1816720282164 4.15723141266983 H 0.0 **** 0.06
17304 H 24.771108286138457 94.09444089015142 5.289600054736013 H 0.0 **** 0.06
17305 H 23.33850567421385 94.86551924494563 4.5668011617275965 H 0.0 **** 0.06
17306 C 99.07142581260983 7.777576222493451 121.72984759507142 C 0.0 **** -0.24
17307 H 99.58981759308163 7.074447111537097 121.077882957098 H 0.0 **** 0.06
17308 H 98.70904933254698 8.620290882068332 121.14028181150175 H 0.0 **** 0.06
17309 H 99.75888727145056 8.137629903053238 122.49542944807051 H 0.0 **** 0.06
17310 H 98.22746169167948 7.2766864455282985 122.20624194464133 H 0.0 **** 0.06
17311 C 83.22546809719763 56.11641012770218 30.86927363044836 C 0.0 **** -0.24
17312 H 83.68834615319435 56.32826956264586 31.833448921747248 H 0.0 **** 0.06
17313 H 83.13127704823017 57.04117516711763 30.30025946269342 H 0.0 **** 0.06
17314 H 82.23679265920234 55.68557067621383 31.0284142386559 H 0.0 **** 0.06
17315 H 83.84459124690922 55.41076926112633 30.31646544319304 H 0.0 **** 0.06
17316 C 85.41129817547 76.57975275853023 89.81803050273646 C 0.0 **** -0.24
17317 H 85.11878045662527 76.82043098700791 90.83989586652643 H 0.0 **** 0.06
17318 H 84.81314010873687 77.16625927174742 89.12084437782909 H 0.0 **** 0.06
17319 H 85.24765372722925 75.51754609751991 89.63378603414748 H 0.0 **** 0.06
17320 H 86.46697447518278 76.81389888331415 89.67696784943115 H 0.0 **** 0.06
17321 C 83.23260166303862 10.89434264458626 17.48158849916649 C 0.0 **** -0.24
17322 H 82.611436259058 11.405861092088571 16.746775018191414 H 0.0 **** 0.06
17323 H 82.63979713769373 10.13510569984399 17.992770057458472 H 0.0 **** 0.06
17324 H 83.60487000856938 11.616225342464872 18.20806842577585 H 0.0 **** 0.06
17325 H 84.07404426765436 10.419002639171964 16.97685616706815 H 0.0 **** 0.06
17326 C 87.36684560280793 34.21888308366826 53.449943851397975 C 0.0 **** -0.24
17327 H 86.66033591280637 34.99256649336732 53.14685542671418 H 0.0 **** 0.06
17328 H 87.48212328939752 34.23751509039863 54.53346789276554 H 0.0 **** 0.06
17329 H 88.33157166330972 34.40319348838912 52.97805431956445 H 0.0 **** 0.06
17330 H 86.99010705561687 33.24363620355999 53.14014373749146 H 0.0 **** 0.06
17331 C 9.186116134525264 15.08063764472142 110.50197961803153 C 0.0 **** -0.24
17332 H 9.629496036155786 14.520761891629576 109.67883634610997 H 0.0 **** 0.06
17333 H 8.104205438704298 14.947602134556035 110.49221840014123 H 0.0 **** 0.06
17334 H 9.42365583757595 16.13838029113498 110.390324653039 H 0.0 **** 0.06
17335 H 9.588237924345265 14.716037605618766 111.44735645421655 H 0.0 **** 0.06
17336 C 95.57892083249865 28.432862697534233 65.89869920539233 C 0.0 **** -0.24
17337 H 96.57058522135037 28.874290479721537 65.99227624167055 H 0.0 **** 0.06
17338 H 95.45430064012135 27.654982505298094 66.65336257278052 H 0.0 **** 0.06
17339 H 95.46785480450407 27.996512621853128 64.90559373843921 H 0.0 **** 0.06
17340 H 94.82235338411377 29.204388386327253 66.04341376726752 H 0.0 **** 0.06
17341 C 49.50254681729484 112.48688900471402 114.86802563387235 C 0.0 **** -0.24
17342 H 50.19619948100785 113.1550463181164 114.35827351862056 H 0.0 **** 0.06
17343 H 50.061792173343065 111.6911343583773 115.36002323637265 H 0.0 **** 0.06
17344 H 48.81614096455263 112.0522677530507 114.14157754606455 H 0.0 **** 0.06
17345 H 48.93764689385327 113.04758638344495 115.61261678667569 H 0.0 **** 0.06
17346 C 76.8260202685205 87.65862171013227 7.00526983819131 C 0.0 **** -0.24
17347 H 76.69388266879076 86.81582799170516 6.326009261137727 H 0.0 **** 0.06
17348 H 77.81012380346755 87.59970775461507 7.470140620508971 H 0.0 **** 0.06
17349 H 76.05670869130878 87.62677962250476 7.777327669207068 H 0.0 **** 0.06
17350 H 76.74229903714996 88.59160167765067 6.446868843619356 H 0.0 **** 0.06
17351 C 90.16597639518955 2.6280734881494823 98.24630377362877 C 0.0 **** -0.24
17352 H 89.29981021415534 2.271239985491377 97.68861345160437 H 0.0 **** 0.06
17353 H 90.49012939924631 1.8578828734767967 98.94643000215683 H 0.0 **** 0.06
17354 H 89.8966586805061 3.5292042027863317 98.79716933691546 H 0.0 **** 0.06
17355 H 90.97683153636962 2.8547110547430066 97.55347127880569 H 0.0 **** 0.06
17356 C 69.30144945050412 65.03862130564073 117.13132325619792 C 0.0 **** -0.24
17357 H 70.0768216040384 64.45229758792692 117.62473384549261 H 0.0 **** 0.06
17358 H 69.708764479054 66.00829039084547 116.84369702901 H 0.0 **** 0.06
17359 H 68.46628584040062 65.18365271271338 117.81605901940587 H 0.0 **** 0.06
17360 H 68.95623317033679 64.50989826682166 116.2431604855438 H 0.0 **** 0.06
17361 C 20.12871910663057 39.89018392554743 124.81365346298332 C 0.0 **** -0.24
17362 H 20.812703430372096 40.68607075320023 124.52031913484728 H 0.0 **** 0.06
17363 H 20.699385749104977 38.99841298950258 125.07365860469758 H 0.0 **** 0.06
17364 H 19.458559754548958 39.6633690825912 123.98366429778731 H 0.0 **** 0.06
17365 H 19.543855217555745 40.21276094283036 125.67417056647832 H 0.0 **** 0.06
17366 C 125.56726763941838 65.11878570844507 110.18069753960656 C 0.0 **** -0.24
17367 H 125.34254839314048 65.3196257046684 111.22701149171785 H 0.0 **** 0.06
17368 H 124.85449507357671 64.39383848489621 109.78776719505547 H 0.0 **** 0.06
17369 H 126.57771879799355 64.7173852836521 110.09683643842864 H 0.0 **** 0.06
17370 H 125.49605499512654 66.04476441775967 109.60986072107912 H 0.0 **** 0.06
17371 C 77.37188450090615 37.48297514773742 113.02726174196789 C 0.0 **** -0.24
17372 H 76.33693381776669 37.330091336798034 112.7208761868975 H 0.0 **** 0.06
17373 H 77.88206745046143 36.520830328295915 113.0777711438754 H 0.0 **** 0.06
17374 H 77.39376087818407 37.95849829064622 114.00725693183728 H 0.0 **** 0.06
17375 H 77.87466643482291 38.122688370419894 112.30115647853205 H 0.0 **** 0.06
17376 C 74.5426892590923 127.47730386512671 31.249199264727906 C 0.0 **** -0.24
17377 H 74.02152539525832 127.79642996863856 32.15160893312736 H 0.0 **** 0.06
17378 H 73.81557812455662 127.26041553197973 30.46681681049097 H 0.0 **** 0.06
17379 H 75.12497197734262 126.58196655127699 31.463566515091003 H 0.0 **** 0.06
17380 H 75.20876360320324 128.2733797148092 30.915172727453125 H 0.0 **** 0.06
17381 C 38.72461796066199 84.35475486676425 120.12879227211928 C 0.0 **** -0.24
17382 H 39.5157497685089 84.89459768621602 119.60914660386729 H 0.0 **** 0.06
17383 H 38.48516711072443 84.8687377859901 121.06015759606063 H 0.0 **** 0.06
17384 H 39.05900153459805 83.34104323085803 120.34836637871902 H 0.0 **** 0.06
17385 H 37.83641036819148 84.31574270078998 119.49793823945919 H 0.0 **** 0.06
17386 C 14.130266634576362 3.81713532592903 64.83513240920253 C 0.0 **** -0.24
17387 H 14.776027218368736 2.954524849177062 64.67627144834233 H 0.0 **** 0.06
17388 H 14.706028111778469 4.7328679665605335 64.69765160925525 H 0.0 **** 0.06
17389 H 13.728645615309809 3.7887623547730698 65.84839547496058 H 0.0 **** 0.06
17390 H 13.309683945959957 3.793546255042102 64.11864651984916 H 0.0 **** 0.06
17391 C 59.433574068327516 115.03794859630726 123.06931329380504 C 0.0 **** -0.24
17392 H 58.53878728195396 115.43545968332968 123.54987452395346 H 0.0 **** 0.06
17393 H 59.30631628728611 115.0646532593047 121.98665183168586 H 0.0 **** 0.06
17394 H 59.59168868886191 114.00872876556163 123.3919985803635 H 0.0 **** 0.06
17395 H 60.295362487176774 115.64305787573338 123.34936311768693 H 0.0 **** 0.06
17396 C 123.82687760979923 25.983312550314565 105.54641174300579 C 0.0 **** -0.24
17397 H 123.43374390555579 25.904779333673247 104.53273778026508 H 0.0 **** 0.06
17398 H 124.71680946322113 25.360172179930004 105.63945953501647 H 0.0 **** 0.06
17399 H 123.07105708036562 25.647378510534736 106.25568677193385 H 0.0 **** 0.06
17400 H 124.0859189407729 27.021255872972347 105.75555217702285 H 0.0 **** 0.06
17401 C 79.44572792620136 35.65117295133544 58.00812963950365 C 0.0 **** -0.24
17402 H 80.00626989160253 35.05120708125739 57.290261819056255 H 0.0 **** 0.06
17403 H 79.42865897114166 35.141395858001545 58.970751248919456 H 0.0 **** 0.06
17404 H 78.42408952074624 35.785233532007055 57.64939111635488 H 0.0 **** 0.06
17405 H 79.92275367741718 36.62407432084129 58.11895712168106 H 0.0 **** 0.06
17406 C 70.61137596688759 26.702896722755085 41.82925646680732 C 0.0 **** -0.24
17407 H 71.28751459673661 27.503355870797122 41.529427919105444 H 0.0 **** 0.06
17408 H 70.98434483125098 26.234387439191394 42.73901722911742 H 0.0 **** 0.06
17409 H 70.55369350461872 25.96001517643691 41.03348311271199 H 0.0 **** 0.06
17410 H 69.61948794998253 27.11582169976839 42.01248742723604 H 0.0 **** 0.06
17411 C 9.663761701511959 5.327767623555246 19.07156535866065 C 0.0 **** -0.24
17412 H 8.873452722931205 5.976758566955596 19.447398943269775 H 0.0 **** 0.06
17413 H 9.371252688995384 4.924059446447643 18.101775326164756 H 0.0 **** 0.06
17414 H 9.825635621635683 4.509408298395783 19.772394340049857 H 0.0 **** 0.06
17415 H 10.584204779480473 5.902168151375747 18.963694686858304 H 0.0 **** 0.06
17416 C 90.82502276464223 102.6528152132061 56.03841457684899 C 0.0 **** -0.24
17417 H 91.69173866028768 102.84275499976515 56.67143819190156 H 0.0 **** 0.06
17418 H 90.91016482380067 103.23520561615025 55.121336236655225 H 0.0 **** 0.06
17419 H 89.91722396091342 102.94224345968036 56.569526801307035 H 0.0 **** 0.06
17420 H 90.7792779198623 101.59208102273735 55.79280955595445 H 0.0 **** 0.06
17421 C 121.3750009465125 89.86672312871076 34.3561249656753 C 0.0 **** -0.24
17422 H 121.2140183975707 89.57861815123653 33.31680756161662 H 0.0 **** 0.06
17423 H 121.7791142721964 90.8785884045929 34.39357599929469 H 0.0 **** 0.06
17424 H 122.07957024922702 89.17611934924287 34.81902123954715 H 0.0 **** 0.06
17425 H 120.42692853707254 89.8326338990675 34.89309713810165 H 0.0 **** 0.06
17426 C 119.62312681107507 9.86944745089815 28.344736978251262 C 0.0 **** -0.24
17427 H 119.51141670873616 9.447650360936393 29.343141949865355 H 0.0 **** 0.06
17428 H 119.49411388636969 9.081981938454305 27.60214071726915 H 0.0 **** 0.06
17429 H 120.61705335365718 10.305299668423629 28.244261440494085 H 0.0 **** 0.06
17430 H 118.8704694713485 10.642002249544362 28.190388577470856 H 0.0 **** 0.06
17431 C 118.97977584985307 103.96798671516585 7.797579699876479 C 0.0 **** -0.24
17432 H 118.27167126433473 104.00416212310999 6.969765892581648 H 0.0 **** 0.06
17433 H 119.69423660223057 103.1614093621892 7.629703739036842 H 0.0 **** 0.06
17434 H 118.44120106129286 103.78821726392373 8.728645581613677 H 0.0 **** 0.06
17435 H 119.51099827360107 104.91738435378133 7.862843117838139 H 0.0 **** 0.06
17436 C 54.80420865368342 113.97081806927574 129.56709091324578 C 0.0 **** -0.24
17437 H 55.30174419723721 114.85603999104242 129.1703189019964 H 0.0 **** 0.06
17438 H 54.12692562717001 114.26498752206479 130.36962475811995 H 0.0 **** 0.06
17439 H 55.55050960506168 113.27817195624985 129.9570098260314 H 0.0 **** 0.06
17440 H 54.23764307365201 113.48479157839714 128.77262808881866 H 0.0 **** 0.06
17441 C 54.01073423319096 92.69240648023963 36.964577236285976 C 0.0 **** -0.24
17442 H 52.97343089670234 92.35838534710597 36.9388450085973 H 0.0 **** 0.06
17443 H 54.42919697174355 92.65641313166832 35.95898643584634 H 0.0 **** 0.06
17444 H 54.585907359890726 92.04031990837892 37.62195646594252 H 0.0 **** 0.06
17445 H 54.05332224999499 93.71482986591305 37.33937601548223 H 0.0 **** 0.06
17446 C 21.981092804315445 64.75613338441468 99.84853594848194 C 0.0 **** -0.24
17447 H 22.03841951028941 63.67075147796392 99.77038737885027 H 0.0 **** 0.06
17448 H 22.924324320385885 65.14207354976696 100.23680909670136 H 0.0 **** 0.06
17449 H 21.17046241376694 65.03046530967657 100.52328316766115 H 0.0 **** 0.06
17450 H 21.79201600357311 65.18183735866313 98.86270350804624 H 0.0 **** 0.06
17451 C 129.84359002953647 116.61463533316822 110.28332369337616 C 0.0 **** -0.24
17452 H 129.59040084007006 116.41949532747194 111.32538707001629 H 0.0 **** 0.06
17453 H 130.9024716521917 116.86207370880965 110.20772982511457 H 0.0 **** 0.06
17454 H 129.2467952372386 117.44922901323224 109.91450684152917 H 0.0 **** 0.06
17455 H 129.6341064506422 115.72707950592894 109.68677384614074 H 0.0 **** 0.06
17456 C 55.45132955882903 45.07860429936255 128.26444179019222 C 0.0 **** -0.24
17457 H 55.33045019846347 44.32086264899698 129.0392213041061 H 0.0 **** 0.06
17458 H 56.40980418801783 45.58110585797775 128.3954610717858 H 0.0 **** 0.06
17459 H 54.644014465124116 45.80685170629266 128.33963157681632 H 0.0 **** 0.06
17460 H 55.421920797368955 44.60332410662161 127.28372707211906 H 0.0 **** 0.06
17461 C 29.343927422725244 105.61503469401521 23.18601072622272 C 0.0 **** -0.24
17462 H 28.715780435792936 106.43401185283523 23.53518145236626 H 0.0 **** 0.06
17463 H 29.988250441066754 105.27887647273462 23.99891478965708 H 0.0 **** 0.06
17464 H 29.958384419792708 105.95827029555622 22.353220575416344 H 0.0 **** 0.06
17465 H 28.714274224590497 104.78916831100685 22.856658369336003 H 0.0 **** 0.06
17466 C 13.66300415074727 54.13794578828427 54.00649599627215 C 0.0 **** -0.24
17467 H 12.637101442808444 54.2539068065831 54.355077562399686 H 0.0 **** 0.06
17468 H 14.057118157555351 55.1102557520384 53.710678552102166 H 0.0 **** 0.06
17469 H 13.682603581486262 53.46275039008759 53.15155772054342 H 0.0 **** 0.06
17470 H 14.275159762369753 53.72712559442307 54.809625356174024 H 0.0 **** 0.06
17471 C 73.6967577414679 85.90681603427237 33.57321776774242 C 0.0 **** -0.24
17472 H 74.3779518316355 86.24336361300362 32.791914505702856 H 0.0 **** 0.06
17473 H 74.08431509489125 86.20710148256128 34.54717283087883 H 0.0 **** 0.06
17474 H 73.6097931334329 84.82057415345164 33.535958593937714 H 0.0 **** 0.06
17475 H 72.7161990110736 86.35618816350654 33.4185255124347 H 0.0 **** 0.06
17476 C 38.480163182081384 2.1157341042187348 61.19266643837406 C 0.0 **** -0.24
17477 H 37.586227782603856 2.509465533924221 60.70858426185586 H 0.0 **** 0.06
17478 H 38.41890315421648 1.0282375358228286 61.2398673054125 H 0.0 **** 0.06
17479 H 38.55345706021174 2.519759633162863 62.20320290164253 H 0.0 **** 0.06
17480 H 39.36119447394677 2.4064278411293714 60.62109278145081 H 0.0 **** 0.06
17481 C 53.90179766378695 61.368729838375316 59.23505520384366 C 0.0 **** -0.24
17482 H 53.3851970942529 61.43951386704171 58.27785619461025 H 0.0 **** 0.06
17483 H 53.168867790798714 61.268785957108236 60.03552786543976 H 0.0 **** 0.06
17484 H 54.49505661926746 62.26913179170836 59.395172710246186 H 0.0 **** 0.06
17485 H 54.55684759575453 60.49731752533816 59.23008954364363 H 0.0 **** 0.06
17486 C 128.65332698258504 76.90802652779783 100.94883167241922 C 0.0 **** -0.24
17487 H 128.19515965810066 76.56636351471548 100.02123935861675 H 0.0 **** 0.06
17488 H 129.04110781600656 77.91817101733108 100.81270793497816 H 0.0 **** 0.06
17489 H 129.46910591292828 76.2379915377862 101.21968458802188 H 0.0 **** 0.06
17490 H 127.90628075430206 76.9102443518731 101.74337528691166 H 0.0 **** 0.06
17491 C 126.85643533001164 39.46140281440711 130.47632496854015 C 0.0 **** -0.24
17492 H 126.32532639033812 40.408471071358434 130.38079757639323 H 0.0 **** 0.06
17493 H 126.18376607493079 38.70713581142945 130.883207957888 H 0.0 **** 0.06
17494 H 127.70818344916526 39.58847965767336 131.1451965092621 H 0.0 **** 0.06
17495 H 127.2101860227568 39.14239608765445 129.49556828938876 H 0.0 **** 0.06
17496 C 41.296740092316156 87.13886986484165 9.175508822668007 C 0.0 **** -0.24
17497 H 41.79323784740487 86.90323409103483 10.116753330667791 H 0.0 **** 0.06
17498 H 42.04421298388361 87.39343180628066 8.424110150302624 H 0.0 **** 0.06
17499 H 40.623880442183236 87.98353163027167 9.321364324335235 H 0.0 **** 0.06
17500 H 40.72491632388804 86.27294872192942 8.840027539229425 H 0.0 **** 0.06
17501 C 125.17930632802543 39.031617551155364 42.42055655196515 C 0.0 **** -0.24
17502 H 125.9320842569193 38.54109427113002 43.0375231327709 H 0.0 **** 0.06
17503 H 125.0296506955089 38.45776213232625 41.50489245743927 H 0.0 **** 0.06
17504 H 125.51517090184454 40.036823171291076 42.16859020066016 H 0.0 **** 0.06
17505 H 124.24021080288514 39.0885571416608 42.97122247847591 H 0.0 **** 0.06
17506 C 1.8867942675052518 97.30023898958702 89.75202394515873 C 0.0 **** -0.24
17507 H 2.729565799324803 97.63502810520279 89.14625589548129 H 0.0 **** 0.06
17508 H 1.6707723211652592 98.04623761556927 90.51679059931294 H 0.0 **** 0.06
17509 H 2.136017571166576 96.35200193839812 90.22740554115829 H 0.0 **** 0.06
17510 H 1.012918992113498 97.16879918137204 89.11512052675694 H 0.0 **** 0.06
17511 C 37.165739010409624 61.6789785378391 75.34684639018514 C 0.0 **** -0.24
17512 H 36.08634790323907 61.78949685875506 75.24196064648572 H 0.0 **** 0.06
17513 H 37.54226108275785 61.02665273786289 74.55908079275002 H 0.0 **** 0.06
17514 H 37.39325957629603 61.24432965067456 76.32006537478071 H 0.0 **** 0.06
17515 H 37.63939669119435 62.65762232064213 75.26687615088696 H 0.0 **** 0.06
17516 C 41.54311509586414 46.45170392247347 36.2337523621742 C 0.0 **** -0.24
17517 H 42.57267768670788 46.374472435451125 35.88601169641849 H 0.0 **** 0.06
17518 H 40.94085937881635 45.67601924284126 35.76001842946336 H 0.0 **** 0.06
17519 H 41.14381007939939 47.43193679280113 35.97209126339801 H 0.0 **** 0.06
17520 H 41.514190512351334 46.32399227126001 37.31589171372769 H 0.0 **** 0.06
17521 C 68.88398729812543 81.75272738087378 1.8945716665221255 C 0.0 **** -0.24
17522 H 68.18576652205776 82.45623448402787 1.4405298176563406 H 0.0 **** 0.06
17523 H 68.39320390405085 80.78871630238234 2.0296819518748634 H 0.0 **** 0.06
17524 H 69.20586783899597 82.13483311844524 2.8636664136782315 H 0.0 **** 0.06
17525 H 69.75118900500757 81.63262060234291 1.2460695690778607 H 0.0 **** 0.06
17526 C 6.087197064578589 67.75701488742635 83.74999414674816 C 0.0 **** -0.24
17527 H 5.273301524627385 67.62099957137491 83.03675825376176 H 0.0 **** 0.06
17528 H 5.93810675083526 67.09390705883149 84.602036132329 H 0.0 **** 0.06
17529 H 6.099530900126041 68.79245767151329 84.09224356051307 H 0.0 **** 0.06
17530 H 7.035327692427728 67.52285136744962 83.26752638433506 H 0.0 **** 0.06
17531 C 56.42294304412651 38.744366389875324 127.55009837562645 C 0.0 **** -0.24
17532 H 55.98102775991053 39.43454516808798 126.83202556702943 H 0.0 **** 0.06
17533 H 55.63785160396755 38.322821598538624 128.17890197392032 H 0.0 **** 0.06
17534 H 57.14048514042307 39.27908899965239 128.17328101256112 H 0.0 **** 0.06
17535 H 56.931636399947536 37.94117224021599 127.01680042119443 H 0.0 **** 0.06
17536 C 48.85700984191844 14.91795476512749 96.7280813741416 C 0.0 **** -0.24
17537 H 49.818765461028605 15.331385427661019 96.4243682065571 H 0.0 **** 0.06
17538 H 48.681684126228916 13.980259052421786 96.19924188819316 H 0.0 **** 0.06
17539 H 48.065374353213144 15.625455247959792 96.48585489496071 H 0.0 **** 0.06
17540 H 48.86392230014657 14.733098170567757 97.80218319264019 H 0.0 **** 0.06
17541 C 52.542889960672454 24.048182809593982 107.59103524854856 C 0.0 **** -0.24
17542 H 53.59440513691142 24.33334285431829 107.62500664228713 H 0.0 **** 0.06
17543 H 52.03240674855502 24.43743499964083 108.47140905556745 H 0.0 **** 0.06
17544 H 52.462483935580224 22.961070221734047 107.57452503299032 H 0.0 **** 0.06
17545 H 52.08402991641866 24.459479158231204 106.6922459453541 H 0.0 **** 0.06
17546 C 19.94539984912386 115.41550603647177 116.56533526386005 C 0.0 **** -0.24
17547 H 20.648962142144292 114.5834634988917 116.59469149265472 H 0.0 **** 0.06
17548 H 19.994721117172325 115.966610853837 117.50445099773226 H 0.0 **** 0.06
17549 H 18.93597113630326 115.03151670487499 116.4214280690759 H 0.0 **** 0.06
17550 H 20.202763099554083 116.07924603183736 115.73906114192063 H 0.0 **** 0.06
17551 C 9.406346940642287 59.309263785325925 49.219440745800114 C 0.0 **** -0.24
17552 H 9.569498608553726 58.276833491291484 49.52810994472176 H 0.0 **** 0.06
17553 H 9.382407451258086 59.36366173291117 48.13132668860834 H 0.0 **** 0.06
17554 H 10.215893507192355 59.93395332946608 49.59683946832402 H 0.0 **** 0.06
17555 H 8.456958746845874 59.66316218173682 49.62262495948835 H 0.0 **** 0.06
17556 C 11.785676306104989 58.709334206671926 113.85702444417504 C 0.0 **** -0.24
17557 H 11.791072724732459 58.286946304951925 112.8519936821701 H 0.0 **** 0.06
17558 H 10.770361223708733 58.687409894259204 114.25512138474554 H 0.0 **** 0.06
17559 H 12.13904682367803 59.73990549809322 113.8196536828847 H 0.0 **** 0.06
17560 H 12.441716903192145 58.123287311078144 114.50002615133846 H 0.0 **** 0.06
17561 C 3.700571094008012 117.10628327679125 52.10706459258347 C 0.0 **** -0.24
17562 H 3.243816508138991 116.11655915290356 52.11810486483466 H 0.0 **** 0.06
17563 H 3.9738461645735015 117.39118900041798 53.123305686882645 H 0.0 **** 0.06
17564 H 2.9893990065277194 117.82955383043773 51.70635707655771 H 0.0 **** 0.06
17565 H 4.592637665076381 117.08827645648064 51.481946692959696 H 0.0 **** 0.06
17566 C 12.465430912396442 84.31864037122307 30.974882552860407 C 0.0 **** -0.24
17567 H 12.341866618343232 83.62755085155558 30.141265378591612 H 0.0 **** 0.06
17568 H 11.641678562746392 84.19177459165067 31.676845209686007 H 0.0 **** 0.06
17569 H 12.468154912464513 85.34202426225349 30.599395571989334 H 0.0 **** 0.06
17570 H 13.408892171563565 84.11428568310544 31.480135391390007 H 0.0 **** 0.06
17571 C 100.99102081617954 129.26943146153 63.425412615582886 C 0.0 **** -0.24
17572 H 100.46748103537253 129.98362176415952 62.788854016532554 H 0.0 **** 0.06
17573 H 101.37539247876295 129.7821199984486 64.30690018287748 H 0.0 **** 0.06
17574 H 101.8189045833714 128.82877432789866 62.87038901127468 H 0.0 **** 0.06
17575 H 100.30038788896923 128.48412811011698 63.733390373594204 H 0.0 **** 0.06
17576 C 92.88554336785234 90.17174999170743 115.51689322782991 C 0.0 **** -0.24
17577 H 92.36597633760496 89.66774259679673 116.33129304810166 H 0.0 **** 0.06
17578 H 92.15583243740735 90.55023713198702 114.80028386631139 H 0.0 **** 0.06
17579 H 93.55177284544108 89.46611143652268 115.01912012275804 H 0.0 **** 0.06
17580 H 93.4680528528209 91.0017746969026 115.91568278757669 H 0.0 **** 0.06
17581 C 82.56856501592051 6.416352516933443 7.444618721987183 C 0.0 **** -0.24
17582 H 82.49059098912612 5.333173355145561 7.351977396732551 H 0.0 **** 0.06
17583 H 82.93817508589048 6.835845222811173 6.5090366976915845 H 0.0 **** 0.06
17584 H 83.25945838951641 6.662726997603045 8.251026462423226 H 0.0 **** 0.06
17585 H 81.58706422914796 6.833675299215798 7.667827877433709 H 0.0 **** 0.06
17586 C 89.89182580441928 22.11153890568866 98.05041148902046 C 0.0 **** -0.24
17587 H 88.8375975891941 22.213731561878888 98.30765844446034 H 0.0 **** 0.06
17588 H 90.28648701554715 23.079607066326133 97.74434131739537 H 0.0 **** 0.06
17589 H 89.9977464793418 21.39893375465053 97.23154259769649 H 0.0 **** 0.06
17590 H 90.44322958278815 21.75108359905974 98.91846925264065 H 0.0 **** 0.06
17591 C 29.357964362679468 48.72820284668012 127.94841530303023 C 0.0 **** -0.24
17592 H 29.453917293693138 49.57459779074398 127.26913256176294 H 0.0 **** 0.06
17593 H 30.286310426817153 48.60442264971246 128.50764300024812 H 0.0 **** 0.06
17594 H 29.155682380376447 47.82341394836112 127.37493074529905 H 0.0 **** 0.06
17595 H 28.53710234261149 48.90983667537313 128.6413432225906 H 0.0 **** 0.06
17596 C 28.385240137296798 8.494396042157234 56.65278083181286 C 0.0 **** -0.24
17597 H 29.38067327922544 8.058583531943441 56.73582758940037 H 0.0 **** 0.06
17598 H 28.472019379613016 9.545397320293489 56.37503956429484 H 0.0 **** 0.06
17599 H 27.87099648376121 8.413064792223906 57.60980543869195 H 0.0 **** 0.06
17600 H 27.81887006177353 7.962233645888887 55.88831264612921 H 0.0 **** 0.06
17601 C 96.93544089004376 51.6365608062502 81.40145278115797 C 0.0 **** -0.24
17602 H 97.86120865572593 52.0255599473019 80.97789385580275 H 0.0 **** 0.06
17603 H 96.0861639027516 52.03755496669946 80.84743129924078 H 0.0 **** 0.06
17604 H 96.86123443821401 51.93463048187749 82.44687293269486 H 0.0 **** 0.06
17605 H 96.93394497235909 50.54859835345974 81.33300610835381 H 0.0 **** 0.06
17606 C 65.41871814230393 27.171132751275366 96.5038632474057 C 0.0 **** -0.24
17607 H 66.19315189480844 26.533210885336814 96.07919341571417 H 0.0 **** 0.06
17608 H 64.49471734239283 26.601928296197855 96.60561923505227 H 0.0 **** 0.06
17609 H 65.25006216060784 28.02348607461579 95.8460825734358 H 0.0 **** 0.06
17610 H 65.73807106043763 27.526221428292217 97.48376794947423 H 0.0 **** 0.06
17611 C 69.57573393646027 42.24406663510632 28.575407086484006 C 0.0 **** -0.24
17612 H 70.47785181339412 42.854876347674775 28.56327275286594 H 0.0 **** 0.06
17613 H 69.82555654180265 41.234308676413406 28.9006485101894 H 0.0 **** 0.06
17614 H 69.1482428126863 42.20907097975456 27.573540782597206 H 0.0 **** 0.06
17615 H 68.8515986901356 42.6795267540823 29.264942564336764 H 0.0 **** 0.06
17616 C 10.429726617692094 52.33495127849881 101.17603456850607 C 0.0 **** -0.24
17617 H 9.344798703525036 52.25455053452367 101.24325516227097 H 0.0 **** 0.06
17618 H 10.884486946621497 51.82341200882104 102.02462758975177 H 0.0 **** 0.06
17619 H 10.718445041985532 53.38556801922647 101.18687701899125 H 0.0 **** 0.06
17620 H 10.770484321359355 51.87419613425459 100.24892867120705 H 0.0 **** 0.06
17621 C 95.16083687791814 23.01175762957061 72.32061478335088 C 0.0 **** -0.24
17622 H 94.20537666169444 23.411776244153117 71.98245756215563 H 0.0 **** 0.06
17623 H 95.3240575323911 23.290034356846576 73.36139165929985 H 0.0 **** 0.06
17624 H 95.96255120236398 23.418474493572575 71.70494932699712 H 0.0 **** 0.06
17625 H 95.15015168699804 21.925361199736727 72.23204221441303 H 0.0 **** 0.06
17626 C 8.10076134449075 71.7789661400457 92.34468071690924 C 0.0 **** -0.24
17627 H 8.639310191745693 72.39387985861848 91.62350685750899 H 0.0 **** 0.06
17628 H 8.815798674447251 71.26071882176116 92.98423278462401 H 0.0 **** 0.06
17629 H 7.489507179026532 71.04885463621835 91.81466752915523 H 0.0 **** 0.06
17630 H 7.459955966877388 72.41360264652683 92.95681586736652 H 0.0 **** 0.06
17631 C 50.693843900044314 124.05883110826699 87.83865273534269 C 0.0 **** -0.24
17632 H 51.07397489426394 123.19052520111944 87.29950822218426 H 0.0 **** 0.06
17633 H 49.61273982490073 124.12016064242727 87.70974503186142 H 0.0 **** 0.06
17634 H 51.159354296272056 124.96214084264676 87.44719910915762 H 0.0 **** 0.06
17635 H 50.9282815860812 123.95850424674171 88.89820638583076 H 0.0 **** 0.06
17636 C 111.84877514797523 54.98988478451605 46.427089453497615 C 0.0 **** -0.24
17637 H 111.13408489366185 54.39593345517892 45.85952007998573 H 0.0 **** 0.06
17638 H 111.97656862436774 54.55476797226294 47.41859219789741 H 0.0 **** 0.06
17639 H 111.47850971739295 56.010947785053986 46.523117435975124 H 0.0 **** 0.06
17640 H 112.80709561806118 54.999157037826535 45.907358370580084 H 0.0 **** 0.06
17641 C 54.90479094943453 38.25597858828499 0.36166214047901235 C 0.0 **** -0.24
17642 H 54.45640764342302 37.2859054492057 0.14795447509879978 H 0.0 **** 0.06
17643 H 55.9657277721285 38.22812394829495 0.11269495260023632 H 0.0 **** 0.06
17644 H 54.7853199852829 38.48557435563862 1.4205114898281295 H 0.0 **** 0.06
17645 H 54.410971913250165 39.02368502665752 -0.23425485654348677 H 0.0 **** 0.06
17646 C 65.8122562538196 67.27885614726682 69.589866190954 C 0.0 **** -0.24
17647 H 66.72450085845227 66.7733594536005 69.27391791636241 H 0.0 **** 0.06
17648 H 65.21095506559493 67.52388035840502 68.71490480107825 H 0.0 **** 0.06
17649 H 66.07002329500212 68.19512667282447 70.12203252522602 H 0.0 **** 0.06
17650 H 65.24433512578544 66.6233615930863 70.25042199933338 H 0.0 **** 0.06
17651 C 20.270832705959492 25.85513352567193 62.92415672241256 C 0.0 **** -0.24
17652 H 19.503031987709903 25.501440303641687 63.61061393509189 H 0.0 **** 0.06
17653 H 21.224936085495642 25.39272637261479 63.17628727051567 H 0.0 **** 0.06
17654 H 20.35981289787651 26.938721711279783 63.00531502894873 H 0.0 **** 0.06
17655 H 19.996217331230582 25.589120355823695 61.902867869587595 H 0.0 **** 0.06
17656 C 80.49626257986796 16.015144093728598 76.42222311310852 C 0.0 **** -0.24
17657 H 79.61837026668877 16.13206869797888 75.78709228112972 H 0.0 **** 0.06
17658 H 80.48441173195266 16.77731168438423 77.20172399321352 H 0.0 **** 0.06
17659 H 81.39759562931016 16.126242657575848 75.81886223343011 H 0.0 **** 0.06
17660 H 80.48406510428543 15.02645967404493 76.87938033727251 H 0.0 **** 0.06
17661 C 98.65034534512696 121.67058804589055 106.35164374135209 C 0.0 **** -0.24
17662 H 98.74375614680403 121.01641370080125 107.21946049136966 H 0.0 **** 0.06
17663 H 99.46302053884617 121.46545210111572 105.65358225484621 H 0.0 **** 0.06
17664 H 98.70118879568815 122.71039926225427 106.67371673791618 H 0.0 **** 0.06
17665 H 97.69462108514264 121.48686381345044 105.86128470177468 H 0.0 **** 0.06
17666 C 44.19461261980041 51.77396542932877 13.429077427943465 C 0.0 **** -0.24
17667 H 44.66244328750665 52.421272959157434 12.687373381873464 H 0.0 **** 0.06
17668 H 43.62262070163405 52.380580203365 14.13188486005108 H 0.0 **** 0.06
17669 H 44.96632347997317 51.223897432776525 13.968388159862698 H 0.0 **** 0.06
17670 H 43.52907082977717 51.070422436401856 12.930031549418459 H 0.0 **** 0.06
17671 C 71.03765364436946 83.07391807338223 13.743627420490213 C 0.0 **** -0.24
17672 H 70.36600816927083 83.20156318671049 12.895142000952006 H 0.0 **** 0.06
17673 H 70.6714451424186 82.26627933132663 14.378464831245367 H 0.0 **** 0.06
17674 H 71.0754178351652 83.9993687342958 14.319528011347188 H 0.0 **** 0.06
17675 H 72.03685106876145 82.82961225139672 13.383997605833372 H 0.0 **** 0.06
17676 C 75.46096741185147 5.495917014294093 78.06763682602687 C 0.0 **** -0.24
17677 H 76.0280439959821 6.034066328968038 78.82819124064564 H 0.0 **** 0.06
17678 H 75.6449851843002 5.946871863592946 77.09183114524171 H 0.0 **** 0.06
17679 H 74.39827971427616 5.553233866208643 78.29914708155928 H 0.0 **** 0.06
17680 H 75.77414379460237 4.452677641394132 78.05076803829792 H 0.0 **** 0.06
17681 C 6.520282224055364 123.45822418385123 27.640882913899162 C 0.0 **** -0.24
17682 H 6.789412076349777 124.43086448401783 27.22767049830378 H 0.0 **** 0.06
17683 H 7.38665839161942 122.797735695563 27.608529376098716 H 0.0 **** 0.06
17684 H 5.710459136243287 123.02633700615314 27.053692614621355 H 0.0 **** 0.06
17685 H 6.194983563083241 123.58202833610534 28.674185301931885 H 0.0 **** 0.06
17686 C 93.01592750775637 92.47850432185746 104.57343836852147 C 0.0 **** -0.24
17687 H 92.51551083073201 91.62030755501002 104.12512941587585 H 0.0 **** 0.06
17688 H 93.95963411477783 92.65885226002766 104.05722425245163 H 0.0 **** 0.06
17689 H 93.2104654615269 92.27681692084467 105.62716399166831 H 0.0 **** 0.06
17690 H 92.37886493160335 93.35878579946367 104.48330897985657 H 0.0 **** 0.06
17691 C 76.08496436764256 9.739862922080434 21.163219775903457 C 0.0 **** -0.24
17692 H 76.69006287134431 9.721209991003391 20.256117021432573 H 0.0 **** 0.06
17693 H 76.43666590677083 10.53915873008205 21.8159737412507 H 0.0 **** 0.06
17694 H 76.17325211248817 8.784386581818225 21.678383435565678 H 0.0 **** 0.06
17695 H 75.0427909096166 9.916802326994386 20.900152639870925 H 0.0 **** 0.06
17696 C 93.67654551287717 110.55890902348808 17.143562386196038 C 0.0 **** -0.24
17697 H 93.50712321895283 109.52754648976911 17.45325076530304 H 0.0 **** 0.06
17698 H 92.98487188359537 111.21469929237564 17.671626908737323 H 0.0 **** 0.06
17699 H 93.51393751390658 110.64636909834373 16.069077452873046 H 0.0 **** 0.06
17700 H 94.70192194024192 110.84462856662955 17.37960270184118 H 0.0 **** 0.06
17701 C 98.37815260733142 93.8918705517723 82.59403813716135 C 0.0 **** -0.24
17702 H 97.4677618841006 94.28842037211197 83.04424861800568 H 0.0 **** 0.06
17703 H 99.24585748014437 94.2843020694099 83.12426943094405 H 0.0 **** 0.06
17704 H 98.42558841818654 94.19104991510135 81.54696888318763 H 0.0 **** 0.06
17705 H 98.37251752259884 92.80408275528687 82.66094409976785 H 0.0 **** 0.06
17706 C 110.97231393397922 15.340817021132438 119.01197876717734 C 0.0 **** -0.24
17707 H 111.4490785052813 16.21624838480173 119.4534569295387 H 0.0 **** 0.06
17708 H 110.19403705488375 14.974830771530861 119.68138568036268 H 0.0 **** 0.06
17709 H 111.7175972408435 14.559825170481503 118.85938445628648 H 0.0 **** 0.06
17710 H 110.53013083666858 15.612981961505625 118.05337726159814 H 0.0 **** 0.06
17711 C 14.106752653197873 129.1062895378841 64.5418638706634 C 0.0 **** -0.24
17712 H 13.082069294770804 128.88340977980477 64.24654027026048 H 0.0 **** 0.06
17713 H 14.795268071337375 128.67876602069413 63.81252878468206 H 0.0 **** 0.06
17714 H 14.304249078623968 128.67696005016336 65.52386376750223 H 0.0 **** 0.06
17715 H 14.245716073338826 130.18721247423815 64.58240166648739 H 0.0 **** 0.06
17716 C 61.78381784029011 41.35806284771351 11.391750640892553 C 0.0 **** -0.24
17717 H 61.9072935937849 40.279510081453424 11.29363264574522 H 0.0 **** 0.06
17718 H 62.75142986234121 41.84676510530116 11.272023356810337 H 0.0 **** 0.06
17719 H 61.37967720515958 41.58927950374513 12.377331524384829 H 0.0 **** 0.06
17720 H 61.09785215314085 41.71686238521144 10.624111752520719 H 0.0 **** 0.06
17721 C 113.27852184407493 46.8611461020171 93.25572579892315 C 0.0 **** -0.24
17722 H 114.30146940766798 47.079881982045805 92.94884571550216 H 0.0 **** 0.06
17723 H 113.06963517073729 45.80391011302626 93.09541100276579 H 0.0 **** 0.06
17724 H 112.58649415726745 47.46293203289025 92.66657145031203 H 0.0 **** 0.06
17725 H 113.15891061523843 47.099873447226315 94.31236095825724 H 0.0 **** 0.06
17726 C 64.37379357384967 104.71565989984879 31.684032227563705 C 0.0 **** -0.24
17727 H 64.11899618570774 104.11022213622599 30.813823108603756 H 0.0 **** 0.06
17728 H 65.12682684162917 105.45222036919188 31.405329886563237 H 0.0 **** 0.06
17729 H 64.76720943819888 104.07118280206421 32.47038057171454 H 0.0 **** 0.06
17730 H 63.481006762502204 105.22618305729426 32.04442819872867 H 0.0 **** 0.06
17731 C 37.596434221668545 30.95930944039054 55.019340180752266 C 0.0 **** -0.24
17732 H 36.58683896334858 30.740420889239545 54.67179783890188 H 0.0 **** 0.06
17733 H 37.91336652741006 31.926078324824232 54.62835514368925 H 0.0 **** 0.06
17734 H 38.27780372132409 30.183976314086863 54.66756514392128 H 0.0 **** 0.06
17735 H 37.607938298256016 30.98583384729875 56.10933634031872 H 0.0 **** 0.06
17736 C 83.74179761281565 91.06753294218294 76.77932563390925 C 0.0 **** -0.24
17737 H 83.0181699442293 90.42215466926314 77.27556575396036 H 0.0 **** 0.06
17738 H 84.74439001273592 90.83453751736255 77.13996002142753 H 0.0 **** 0.06
17739 H 83.51018143535629 92.1101622636055 76.9996993627054 H 0.0 **** 0.06
17740 H 83.69501883614973 90.90473945114366 75.70281067096707 H 0.0 **** 0.06
17741 C 95.31862858138572 10.891781454376854 128.46124102913558 C 0.0 **** -0.24
17742 H 94.2552674014207 10.705074184250378 128.6118593412603 H 0.0 **** 0.06
17743 H 95.88815947154804 10.011043233661326 128.75798203132476 H 0.0 **** 0.06
17744 H 95.62673329431341 11.745823841969681 129.06612339211486 H 0.0 **** 0.06
17745 H 95.50396038698169 11.107945237816082 127.40852602672933 H 0.0 **** 0.06
17746 C 125.03885286595113 129.0490565212641 37.19059188872174 C 0.0 **** -0.24
17747 H 124.53423020867919 128.118075045981 37.44793778016734 H 0.0 **** 0.06
17748 H 124.29778344490023 129.8048574845857 36.93199482512446 H 0.0 **** 0.06
17749 H 125.69943033631498 128.88131555670614 36.33951734165154 H 0.0 **** 0.06
17750 H 125.62604685924245 129.391167627387 38.042777122334115 H 0.0 **** 0.06
17751 C 128.98254765226622 76.13116651968662 18.52783462936884 C 0.0 **** -0.24
17752 H 129.4849133174655 75.68031485309714 17.67233597359734 H 0.0 **** 0.06
17753 H 127.92220705215551 75.87851621643972 18.500191342094098 H 0.0 **** 0.06
17754 H 129.09991397985124 77.21459217563054 18.486815998490407 H 0.0 **** 0.06
17755 H 129.42314530773493 75.75213984739631 19.449715821367946 H 0.0 **** 0.06
17756 C 80.08200764942833 8.879702623227729 118.32412060344109 C 0.0 **** -0.24
17757 H 78.99761685051064 8.923237739990157 118.21522686888025 H 0.0 **** 0.06
17758 H 80.55105624495354 9.014792229626948 117.34941208563774 H 0.0 **** 0.06
17759 H 80.36647848922163 7.909938419066748 118.73348993140172 H 0.0 **** 0.06
17760 H 80.4106833185455 9.67021565593052 118.99924055882977 H 0.0 **** 0.06
17761 C 82.63185197551076 86.09339283864402 124.6025909593553 C 0.0 **** -0.24
17762 H 82.53350664881621 87.15997949406027 124.80604268505664 H 0.0 **** 0.06
17763 H 83.54896501029297 85.91451583945684 124.04212140546173 H 0.0 **** 0.06
17764 H 81.77620379243798 85.75520684670634 124.01889254301588 H 0.0 **** 0.06
17765 H 82.66750312460077 85.54612371181206 125.54485843637454 H 0.0 **** 0.06
17766 C 4.2961501668823985 29.06190709272363 91.90128459214793 C 0.0 **** -0.24
17767 H 3.836625115517222 29.970283298501272 91.51165416890672 H 0.0 **** 0.06
17768 H 3.9331503484462473 28.20196592188205 91.3367893432878 H 0.0 **** 0.06
17769 H 4.033774311047296 28.944593540599172 92.95214083506369 H 0.0 **** 0.06
17770 H 5.3794173384385715 29.131894264664353 91.80188887571884 H 0.0 **** 0.06
17771 C 129.17983435650441 91.73310600444069 119.90490266959648 C 0.0 **** -0.24
17772 H 128.82292006239712 90.76495291286935 120.25778977774226 H 0.0 **** 0.06
17773 H 130.25936858692316 91.69009177416928 119.7565512107554 H 0.0 **** 0.06
17774 H 128.9441402333145 92.49785796684327 120.64322444312126 H 0.0 **** 0.06
17775 H 128.69242707300654 91.97648617315119 118.96044634873951 H 0.0 **** 0.06
17776 C 73.69737670693536 62.95226506587352 86.94383240846432 C 0.0 **** -0.24
17777 H 72.69856433302814 62.89113178319258 87.37513855632385 H 0.0 **** 0.06
17778 H 74.43484109308685 63.021779088483584 87.74471608369821 H 0.0 **** 0.06
17779 H 73.76616126813762 63.834616531637266 86.30859389264717 H 0.0 **** 0.06
17780 H 73.89082920735498 62.05982848398429 86.34839931893826 H 0.0 **** 0.06
17781 C 112.93072964436979 130.13415183448205 59.01645609105269 C 0.0 **** -0.24
17782 H 112.65254894694354 129.26592270908165 59.61320822655695 H 0.0 **** 0.06
17783 H 113.12220114534253 130.9815643686541 59.67447593247388 H 0.0 **** 0.06
17784 H 112.11796336296635 130.38014780712203 58.33303643488625 H 0.0 **** 0.06
17785 H 113.83065476860705 129.9077637965119 58.44357498278296 H 0.0 **** 0.06
17786 C 14.615338158814154 116.27560810551786 99.74023806366188 C 0.0 **** -0.24
17787 H 13.874417622704982 116.76821857175638 100.37035566339296 H 0.0 **** 0.06
17788 H 14.383274381443925 116.46448075099337 98.69168046063663 H 0.0 **** 0.06
17789 H 14.597165580901958 115.20292379692087 99.92958834823042 H 0.0 **** 0.06
17790 H 15.605986635117915 116.6677755596948 99.97022665548121 H 0.0 **** 0.06
17791 C 72.02580965482134 2.628948298534606 121.97332738888325 C 0.0 **** -0.24
17792 H 71.23936454259456 1.999753685437799 122.38986872174405 H 0.0 **** 0.06
17793 H 72.36383006608224 3.3363365155049074 122.73077019001529 H 0.0 **** 0.06
17794 H 71.63708544972702 3.17482593151723 121.11337878594485 H 0.0 **** 0.06
17795 H 72.86238676404001 2.0044171562031003 121.65997126291808 H 0.0 **** 0.06
17796 C 119.3395672396598 23.37766065182916 91.81280904988516 C 0.0 **** -0.24
17797 H 119.64641914400244 24.11550293024419 91.07173474085842 H 0.0 **** 0.06
17798 H 119.27214389937706 22.395797589516178 91.34201970263146 H 0.0 **** 0.06
17799 H 118.36621672910732 23.653628286674348 92.21900622328639 H 0.0 **** 0.06
17800 H 120.07316821358404 23.34435406470641 92.61825597401942 H 0.0 **** 0.06
17801 C 123.25195444231798 26.42364389351571 119.98048636075026 C 0.0 **** -0.24
17802 H 123.41405958932984 25.451231774264883 119.515031653844 H 0.0 **** 0.06
17803 H 123.23485986281739 26.307381115068416 121.06452153466859 H 0.0 **** 0.06
17804 H 122.3010117526643 26.83374969796982 119.64310141833278 H 0.0 **** 0.06
17805 H 124.06002160831133 27.099237199810453 119.7000570365704 H 0.0 **** 0.06
17806 C 38.768032433747464 110.8283709543436 127.35635953755161 C 0.0 **** -0.24
17807 H 38.41749243517933 110.73963626133389 126.32822174645679 H 0.0 **** 0.06
17808 H 39.768716911614604 110.40402487671616 127.43611187203845 H 0.0 **** 0.06
17809 H 38.090973294450976 110.2902981530882 128.01969206584135 H 0.0 **** 0.06
17810 H 38.79567135945865 111.88021342836174 127.64138231647587 H 0.0 **** 0.06
17811 C 107.71521352042814 120.84345047186011 126.15559290980434 C 0.0 **** -0.24
17812 H 106.732061146693 121.19250848895922 125.83908476042564 H 0.0 **** 0.06
17813 H 108.46673277232277 121.58771286766884 125.89193446287464 H 0.0 **** 0.06
17814 H 107.94363254963338 119.90140274411986 125.65623798116673 H 0.0 **** 0.06
17815 H 107.71575477366218 120.69177349214338 127.23428201475599 H 0.0 **** 0.06
17816 C 13.580106584891638 112.02052544219798 94.3416959121233 C 0.0 **** -0.24
17817 H 13.044832421520994 111.1196704704969 94.64216616515452 H 0.0 **** 0.06
17818 H 14.027158902301693 112.4877157209346 95.22004266782676 H 0.0 **** 0.06
17819 H 12.885135249620731 112.71673292688185 93.87316907084457 H 0.0 **** 0.06
17820 H 14.36472071447389 111.75599013479908 93.63151120910297 H 0.0 **** 0.06
17821 C 43.40338935985088 121.33868894894343 111.7890645496494 C 0.0 **** -0.24
17822 H 43.10493761461609 122.2396199328548 111.25347575230677 H 0.0 **** 0.06
17823 H 43.215251836253 120.46575766095455 111.16340030204938 H 0.0 **** 0.06
17824 H 42.82728364354932 121.25632113351651 112.71075333731734 H 0.0 **** 0.06
17825 H 44.465754971580225 121.39304722714226 112.02725347852439 H 0.0 **** 0.06
17826 C 127.13764768869132 59.722499049066556 114.85996261005012 C 0.0 **** -0.24
17827 H 126.265278802038 60.15848368478291 115.34839835904954 H 0.0 **** 0.06
17828 H 128.04405749028672 60.081433657717724 115.34853987608993 H 0.0 **** 0.06
17829 H 127.15022923744215 60.01442916063709 113.81003643969193 H 0.0 **** 0.06
17830 H 127.0899976651697 58.636255700431064 114.93562846940144 H 0.0 **** 0.06
17831 C 73.91551569767381 32.64211086220061 0.044496730775630766 C 0.0 **** -0.24
17832 H 73.93995146095352 32.86391219536232 1.1113249837153063 H 0.0 **** 0.06
17833 H 74.49109618121673 33.39464721106535 -0.49531218942517263 H 0.0 **** 0.06
17834 H 72.88350568608809 32.65338931377576 -0.30513101913562224 H 0.0 **** 0.06
17835 H 74.3481075967274 31.657389233701366 -0.13197713320001547 H 0.0 **** 0.06
17836 C 28.555867101343097 52.45414456569455 69.02928075361555 C 0.0 **** -0.24
17837 H 28.4098093729623 51.75338798662864 68.20751752536299 H 0.0 **** 0.06
17838 H 29.187169828569736 51.99460465339581 69.79064497499328 H 0.0 **** 0.06
17839 H 27.590700744505227 52.71191196025097 69.46386822912555 H 0.0 **** 0.06
17840 H 29.03887825280583 53.35694048645297 68.65447378616827 H 0.0 **** 0.06
17841 C 113.05703786394183 97.50995182843815 100.01076591194874 C 0.0 **** -0.24
17842 H 113.4464921790131 96.54293053589268 99.69156274926831 H 0.0 **** 0.06
17843 H 113.8303200678295 98.2697847806837 99.89012973965475 H 0.0 **** 0.06
17844 H 112.76244519843375 97.45403997599033 101.05918498430549 H 0.0 **** 0.06
17845 H 112.19157866838285 97.7720780280408 99.40310511575046 H 0.0 **** 0.06
17846 C 40.37323637164417 123.51792837438515 27.60159830151477 C 0.0 **** -0.24
17847 H 40.68946816187872 124.23615491462635 28.358022492894804 H 0.0 **** 0.06
17848 H 40.661165674397495 123.87896286674933 26.614004098944946 H 0.0 **** 0.06
17849 H 39.29111140903839 123.39867493212412 27.64409054768666 H 0.0 **** 0.06
17850 H 40.8517790984308 122.55694319422216 27.791118298343378 H 0.0 **** 0.06
17851 C 115.2601990130458 91.63005895457064 85.95587450403477 C 0.0 **** -0.24
17852 H 116.21905027168634 91.77616412082614 85.45702573214929 H 0.0 **** 0.06
17853 H 115.04302738735178 90.56264143087458 86.0176880244638 H 0.0 **** 0.06
17854 H 114.47600635532642 92.12829238558118 85.38715602238024 H 0.0 **** 0.06
17855 H 115.30637335700048 92.05091180000994 86.95972021823736 H 0.0 **** 0.06
17856 C 93.71897001769898 104.56610725338957 43.009948028451475 C 0.0 **** -0.24
17857 H 93.68610497320734 103.93557410876055 42.12148232421436 H 0.0 **** 0.06
17858 H 94.72424224345536 104.97089684737024 43.13043725405966 H 0.0 **** 0.06
17859 H 93.45832018715467 103.97294026260815 43.886305854323616 H 0.0 **** 0.06
17860 H 93.00721266697869 105.38501779481906 42.901566681208465 H 0.0 **** 0.06
17861 C 22.378384572607125 41.86121629571285 82.17424059247787 C 0.0 **** -0.24
17862 H 22.05587812017916 40.829402778310225 82.31979821032525 H 0.0 **** 0.06
17863 H 21.50389021542214 42.501440784936136 82.05664504789331 H 0.0 **** 0.06
17864 H 22.99878004708743 41.924407586978106 81.27958487535409 H 0.0 **** 0.06
17865 H 22.95451789099939 42.186543054027254 83.04034529650329 H 0.0 **** 0.06
17866 C 124.9423027624994 91.58139198170872 107.66890036851407 C 0.0 **** -0.24
17867 H 125.38084042922688 91.46871371901503 106.67716057441667 H 0.0 **** 0.06
17868 H 123.85576619300204 91.53821185016574 107.59210035903763 H 0.0 **** 0.06
17869 H 125.23918305758733 92.54161625353944 108.08998453234015 H 0.0 **** 0.06
17870 H 125.29341363199322 90.77711525353405 108.31435795513485 H 0.0 **** 0.06
17871 C 5.358805211575486 65.0362233231615 14.561100327172369 C 0.0 **** -0.24
17872 H 4.317760623775769 64.73106045601997 14.457190570121647 H 0.0 **** 0.06
17873 H 5.96143298881114 64.53083094438 13.805518529745928 H 0.0 **** 0.06
17874 H 5.718597767285942 64.76617281929009 15.553667444264363 H 0.0 **** 0.06
17875 H 5.436592656525278 66.11419698026776 14.42685329504954 H 0.0 **** 0.06
17876 C 13.857047582340233 53.878881110280076 48.908191440132185 C 0.0 **** -0.24
17877 H 12.796285068516344 53.638985066818236 48.838512028593215 H 0.0 **** 0.06
17878 H 14.185969028054998 54.344674781653964 47.97977593385599 H 0.0 **** 0.06
17879 H 14.425843443426029 52.963827241708145 49.07726015489138 H 0.0 **** 0.06
17880 H 14.019866386832206 54.565880995366115 49.73835747134579 H 0.0 **** 0.06
17881 C 118.87620080873921 24.30245819623093 99.635336163278 C 0.0 **** -0.24
17882 H 119.30437027663322 23.303990137250153 99.54578214628185 H 0.0 **** 0.06
17883 H 119.1408187609835 24.889949082334113 98.75472250781178 H 0.0 **** 0.06
17884 H 119.26999041642597 24.787919116349343 100.52746386009801 H 0.0 **** 0.06
17885 H 117.79182950067434 24.226540786941655 99.70990044093213 H 0.0 **** 0.06
17886 C 48.601296839259106 89.03672232600778 26.22278029064347 C 0.0 **** -0.24
17887 H 47.648814299808265 88.57386019974132 26.481365182926766 H 0.0 **** 0.06
17888 H 49.228613466589394 88.31216636741536 25.703780320987903 H 0.0 **** 0.06
17889 H 49.10274506716432 89.366283594063 27.133274424934882 H 0.0 **** 0.06
17890 H 48.423862956963035 89.8949371436551 25.574584318882074 H 0.0 **** 0.06
17891 C 117.95731707010107 93.63924273414304 95.85905134243161 C 0.0 **** -0.24
17892 H 118.63176010418962 92.79412321430922 95.99172757369838 H 0.0 **** 0.06
17893 H 117.7227898128157 93.75414653741217 94.8002451198774 H 0.0 **** 0.06
17894 H 118.43597713767744 94.54694759297482 96.22662297002167 H 0.0 **** 0.06
17895 H 117.03739378329973 93.46189370674256 96.41720365361695 H 0.0 **** 0.06
17896 C 37.85003654397809 90.34817094724838 96.61485793918445 C 0.0 **** -0.24
17897 H 38.137048658921955 91.36075469738174 96.89815399710876 H 0.0 **** 0.06
17898 H 37.64887375902377 89.7628113666038 97.51257460694862 H 0.0 **** 0.06
17899 H 38.66119899216244 89.88434547945104 96.05352479929418 H 0.0 **** 0.06
17900 H 36.953813639681115 90.38402321406792 95.99608209103226 H 0.0 **** 0.06
17901 C 9.058163495454465 100.76249190913357 52.96161645586692 C 0.0 **** -0.24
17902 H 8.996937006831246 101.0689450816997 54.00636202234742 H 0.0 **** 0.06
17903 H 8.26834293613328 101.25550815742388 52.392822062728925 H 0.0 **** 0.06
17904 H 8.935769238187873 99.68110511710161 52.89232156633342 H 0.0 **** 0.06
17905 H 10.02864921436597 101.04568286369576 52.555762113716256 H 0.0 **** 0.06
17906 C 114.0167784749109 40.78900635407922 69.77692486993533 C 0.0 **** -0.24
17907 H 113.14540873100384 40.14929845217074 69.92723523967067 H 0.0 **** 0.06
17908 H 114.92311944435573 40.18816511060675 69.84629540176036 H 0.0 **** 0.06
17909 H 114.03430931138894 41.563592005048406 70.54312795466802 H 0.0 **** 0.06
17910 H 113.96042067329154 41.25265666798077 68.79237643555837 H 0.0 **** 0.06
17911 C 16.46930269401551 80.93573875236731 74.94495399802024 C 0.0 **** -0.24
17912 H 16.41546701032965 82.0214408138512 74.86998616635304 H 0.0 **** 0.06
17913 H 17.227443827322844 80.5608732414324 74.25671029879058 H 0.0 **** 0.06
17914 H 15.501766197400443 80.5047852086773 74.68864440159768 H 0.0 **** 0.06
17915 H 16.733410236807032 80.65474838189121 75.96455004419443 H 0.0 **** 0.06
17916 C 98.9307477791645 100.34465527952314 28.33375521343283 C 0.0 **** -0.24
17917 H 99.44170812723027 100.71059412306175 27.44389247967583 H 0.0 **** 0.06
17918 H 98.38632515735878 101.16493781028987 28.80310063944158 H 0.0 **** 0.06
17919 H 99.66402878017371 99.94667629121902 29.03595192926148 H 0.0 **** 0.06
17920 H 98.2309632860381 99.5574105396985 28.053491325743465 H 0.0 **** 0.06
17921 C 74.95147239743528 17.351132572642143 78.58541060387634 C 0.0 **** -0.24
17922 H 76.03199915950661 17.484948341783934 78.54205529856773 H 0.0 **** 0.06
17923 H 74.46394160357039 18.13379165626941 78.00412671868955 H 0.0 **** 0.06
17924 H 74.61921111582825 17.407111420961485 79.62161195059016 H 0.0 **** 0.06
17925 H 74.68991466138657 16.375731779342487 78.17304982597386 H 0.0 **** 0.06
17926 C 57.90911160698653 89.93155246220623 99.52763929426126 C 0.0 **** -0.24
17927 H 57.82437414004656 90.99487233274644 99.74862980066158 H 0.0 **** 0.06
17928 H 57.101147777167995 89.39276189537141 100.02290857523005 H 0.0 **** 0.06
17929 H 58.86812423517458 89.56077742409641 99.88880697392023 H 0.0 **** 0.06
17930 H 57.841684217931146 89.77752826050106 98.45103745534018 H 0.0 **** 0.06
17931 C 69.16378258916149 19.503341042883505 8.959088352742299 C 0.0 **** -0.24
17932 H 68.32267013730663 19.012804824005855 8.46878482141588 H 0.0 **** 0.06
17933 H 69.16082287063874 20.564036166476512 8.708358306901829 H 0.0 **** 0.06
17934 H 70.09536500423243 19.052055725197135 8.61949129083672 H 0.0 **** 0.06
17935 H 69.07442744286567 19.38407666130655 10.039052777513149 H 0.0 **** 0.06
17936 C 82.86815811153011 33.74831249803594 61.60981829984516 C 0.0 **** -0.24
17937 H 81.88823225147264 33.35688236369208 61.339507107000955 H 0.0 **** 0.06
17938 H 82.7636940476103 34.77056740846865 61.97467125556517 H 0.0 **** 0.06
17939 H 83.51740611518619 33.73895174079735 60.733799506137174 H 0.0 **** 0.06
17940 H 83.30494584916362 33.12661332476421 62.39178128913325 H 0.0 **** 0.06
17941 C 103.45278105829146 97.28238383178973 102.97445532884186 C 0.0 **** -0.24
17942 H 103.79425860879604 96.29432324097081 103.28401930361983 H 0.0 **** 0.06
17943 H 103.31066929052002 97.29515776311132 101.89364241029526 H 0.0 **** 0.06
17944 H 104.19771244488572 98.02754912027376 103.2531117073174 H 0.0 **** 0.06
17945 H 102.50744411451939 97.51075140302049 103.46840560954078 H 0.0 **** 0.06
17946 C 16.57636208876545 117.07613107794515 95.64361780889472 C 0.0 **** -0.24
17947 H 17.364734799294524 117.45107575683721 94.99182385198745 H 0.0 **** 0.06
17948 H 15.60438263318963 117.35298722134706 95.23419976509648 H 0.0 **** 0.06
17949 H 16.690285894583553 117.50998422529486 96.6376642623559 H 0.0 **** 0.06
17950 H 16.646903835852925 115.99071605770429 95.71033013633216 H 0.0 **** 0.06
17951 C 105.0412053708965 19.98879922276113 51.090996027490164 C 0.0 **** -0.24
17952 H 105.61677394337656 20.805572187999473 50.65513914024112 H 0.0 **** 0.06
17953 H 105.4516085678703 19.0362180417632 50.75500672065246 H 0.0 **** 0.06
17954 H 104.00106637790577 20.068951810705713 50.77343821145139 H 0.0 **** 0.06
17955 H 105.09485362558974 20.04649960622855 52.17826692974113 H 0.0 **** 0.06
17956 C 65.28343744356897 12.421611934669272 36.039802056646636 C 0.0 **** -0.24
17957 H 66.00756299271171 12.2850364936059 36.842815003596606 H 0.0 **** 0.06
17958 H 65.00256532414221 11.44863341142809 35.6350994672365 H 0.0 **** 0.06
17959 H 65.72622011357282 13.029845087560659 35.251171344863536 H 0.0 **** 0.06
17960 H 64.3970724996831 12.922192833056556 36.431281937571605 H 0.0 **** 0.06
17961 C 14.543413119966612 40.58986447319825 20.17740378391275 C 0.0 **** -0.24
17962 H 15.44625995349643 41.20110102119125 20.18140177544214 H 0.0 **** 0.06
17963 H 14.324831829528641 40.2573478240119 21.192305937908586 H 0.0 **** 0.06
17964 H 14.695380618402698 39.72280284579176 19.53464684766317 H 0.0 **** 0.06
17965 H 13.707934566633561 41.179634586670375 19.799714371556462 H 0.0 **** 0.06
17966 C 112.84419154508026 1.6657153335301018 110.9262622435279 C 0.0 **** -0.24
17967 H 112.66694272948018 1.1753584463789366 111.88408974222955 H 0.0 **** 0.06
17968 H 112.35771579962659 1.0977112019052697 110.13326342449781 H 0.0 **** 0.06
17969 H 113.91690323175885 1.7111544915469494 110.73598497490246 H 0.0 **** 0.06
17970 H 112.43666798237518 2.6755583631959894 110.95493263532512 H 0.0 **** 0.06
17971 C 31.492862841356136 94.24788811416937 117.3633396353134 C 0.0 **** -0.24
17972 H 31.89735865292485 93.63545553080559 116.5570016280649 H 0.0 **** 0.06
17973 H 30.432436161724134 94.02891657961521 117.4895228715383 H 0.0 **** 0.06
17974 H 31.620715239706307 95.30187028988388 117.11717344856784 H 0.0 **** 0.06
17975 H 32.02279720510877 94.02414672472963 118.28921048581829 H 0.0 **** 0.06
17976 C 5.091822308548089 106.21076198216949 33.748887640062435 C 0.0 **** -0.24
17977 H 4.2298801655577805 105.62253269015301 34.0656692356082 H 0.0 **** 0.06
17978 H 5.103713364876906 106.27907197162571 32.66103478926516 H 0.0 **** 0.06
17979 H 6.006994912057795 105.72830339612716 34.093220809057925 H 0.0 **** 0.06
17980 H 5.025288481684186 107.21180417182981 34.176096377518775 H 0.0 **** 0.06
17981 C 47.254241602971206 48.93465741007985 98.79146834833402 C 0.0 **** -0.24
17982 H 47.87143571820463 49.41936946310075 98.03508345076241 H 0.0 **** 0.06
17983 H 47.845456671656926 48.184976348773276 99.31627541354692 H 0.0 **** 0.06
17984 H 46.40100041980249 48.454970764661056 98.31173750286054 H 0.0 **** 0.06
17985 H 46.898328643241115 49.681168508531556 99.50272618616458 H 0.0 **** 0.06
17986 C 32.49523864321861 127.40020941434429 58.26440891904579 C 0.0 **** -0.24
17987 H 32.243009530392044 128.25125325722902 58.89706073803936 H 0.0 **** 0.06
17988 H 32.14481566664659 127.58553638784849 57.249154710593245 H 0.0 **** 0.06
17989 H 32.018244687218214 126.5014220992498 58.65586980435526 H 0.0 **** 0.06
17990 H 33.57727536140351 127.26313025294952 58.2557255248569 H 0.0 **** 0.06
17991 C 92.05272268619547 52.826459387844125 24.443720954088036 C 0.0 **** -0.24
17992 H 92.02468941829329 52.1163921320051 23.61745339743365 H 0.0 **** 0.06
17993 H 91.39702547059169 53.668451073611465 24.221893021077477 H 0.0 **** 0.06
17994 H 93.07279109241314 53.18574956904362 24.579310323147098 H 0.0 **** 0.06
17995 H 91.71723241949158 52.33455033912355 25.357568493185653 H 0.0 **** 0.06
17996 C 102.36787004356367 1.9400532509760353 13.598360985180008 C 0.0 **** -0.24
17997 H 102.68797655686888 1.4214432055640032 12.694828532297517 H 0.0 **** 0.06
17998 H 101.36183214149929 1.6162600438543393 13.866849757315538 H 0.0 **** 0.06
17999 H 102.36726835294925 3.01527262207253 13.41832089375179 H 0.0 **** 0.06
18000 H 103.0538411596745 1.708272023899525 14.41266161700894 H 0.0 **** 0.06
18001 C 103.4852618091112 87.57890462235608 15.689213815829135 C 0.0 **** -0.24
18002 H 103.71504516540382 86.51744146253922 15.598411726517213 H 0.0 **** 0.06
18003 H 102.41994435315131 87.7361444449041 15.519467402794533 H 0.0 **** 0.06
18004 H 104.0573206046957 88.13897044443044 14.94880680861121 H 0.0 **** 0.06
18005 H 103.74960863292246 87.92329346153812 16.688690437154833 H 0.0 **** 0.06
18006 C 128.72543145591888 114.58650886440607 31.379987199921104 C 0.0 **** -0.24
18007 H 128.0012738353037 113.77340324935737 31.342047690415775 H 0.0 **** 0.06
18008 H 129.67090191902943 114.21251235885178 31.772853192968093 H 0.0 **** 0.06
18009 H 128.34929457455806 115.37730287643775 32.02937488925634 H 0.0 **** 0.06
18010 H 128.8798208817496 114.98322159443178 30.37730015974801 H 0.0 **** 0.06
18011 C 91.92947452622303 107.44385057586348 101.36368838587185 C 0.0 **** -0.24
18012 H 91.63390624398997 106.75963942222229 100.56759164360369 H 0.0 **** 0.06
18013 H 91.29889415158084 107.27757170747672 102.23806147222814 H 0.0 **** 0.06
18014 H 91.81074755420401 108.47178782387036 101.02019104137332 H 0.0 **** 0.06
18015 H 92.97143729865351 107.26631804273964 101.62768115609057 H 0.0 **** 0.06
18016 C 108.87922287956066 44.77695659478388 53.26680856146456 C 0.0 **** -0.24
18017 H 109.86825228522626 44.38314860653219 53.03449083880666 H 0.0 **** 0.06
18018 H 108.19683425415586 43.95013149137809 53.46588525018869 H 0.0 **** 0.06
18019 H 108.5101901723023 45.35694253469393 52.41998937892585 H 0.0 **** 0.06
18020 H 108.94118469098144 45.41815262515706 54.146151987316216 H 0.0 **** 0.06
18021 C 111.46067282363322 8.215848322891013 75.56629813355228 C 0.0 **** -0.24
18022 H 111.09937686562444 9.226989403019843 75.7551431612434 H 0.0 **** 0.06
18023 H 112.26508285985591 7.982029782454969 76.26394695169287 H 0.0 **** 0.06
18024 H 111.83383241260697 8.147802641689225 74.54517860579297 H 0.0 **** 0.06
18025 H 110.64344672952524 7.507814953493444 75.70280715122573 H 0.0 **** 0.06
18026 C 43.1152029337232 92.38054830113808 83.95664082211118 C 0.0 **** -0.24
18027 H 43.75342396852261 91.6871302343946 83.40736414919759 H 0.0 **** 0.06
18028 H 42.08928617013149 92.2894857878763 83.59896650442042 H 0.0 **** 0.06
18029 H 43.466851094415944 93.39951441849266 83.7989131421545 H 0.0 **** 0.06
18030 H 43.152683072581794 92.14340532455304 85.01962054325634 H 0.0 **** 0.06
18031 C 6.494118806759587 126.15682444930547 106.42947790994934 C 0.0 **** -0.24
18032 H 6.976041416082651 126.42338902309902 105.48868440825345 H 0.0 **** 0.06
18033 H 7.089171851876486 126.53457278715827 107.26218773518937 H 0.0 **** 0.06
18034 H 6.41449251652638 125.07256435699807 106.50290225036822 H 0.0 **** 0.06
18035 H 5.498169260422259 126.59810876759639 106.46525655498587 H 0.0 **** 0.06
18036 C 23.912121995152972 18.337781080766177 45.32269399744871 C 0.0 **** -0.24
18037 H 24.08576646214226 18.949557150571223 46.20851461415663 H 0.0 **** 0.06
18038 H 24.38660497654459 17.365504066946258 45.45379988155875 H 0.0 **** 0.06
18039 H 24.337152317107183 18.83471143000864 44.45004173017412 H 0.0 **** 0.06
18040 H 22.839887252927667 18.204431268128857 45.17760444554716 H 0.0 **** 0.06
18041 C 16.605852464154566 34.726068550181594 5.339669508962547 C 0.0 **** -0.24
18042 H 16.606822611796815 35.57977838989916 6.01728520493803 H 0.0 **** 0.06
18043 H 15.960208243903082 33.94470318464397 5.741607592556079 H 0.0 **** 0.06
18044 H 17.620417666829894 34.341426494815636 5.237300617707483 H 0.0 **** 0.06
18045 H 16.23554745026007 35.03732344040037 4.363345787079059 H 0.0 **** 0.06
18046 C 123.6437680179306 46.231531723104595 96.10344349321116 C 0.0 **** -0.24
18047 H 124.61107233983563 45.7920083563169 96.34817613281788 H 0.0 **** 0.06
18048 H 123.35870607961942 46.937006736952995 96.8845870292453 H 0.0 **** 0.06
18049 H 122.89365879126842 45.44450012000607 96.03235327303898 H 0.0 **** 0.06
18050 H 123.71421474027375 46.75458190711366 95.1493380082488 H 0.0 **** 0.06
18051 C 67.22671894146455 5.3767417177976995 104.0957684220368 C 0.0 **** -0.24
18052 H 67.45105230520124 4.647555590806203 103.31711149032193 H 0.0 **** 0.06
18053 H 68.13682255657417 5.914668896558624 104.36125332116896 H 0.0 **** 0.06
18054 H 66.83948487657759 4.86133660734523 104.97403817348413 H 0.0 **** 0.06
18055 H 66.48065834516862 6.08097144408142 103.72934042513063 H 0.0 **** 0.06
18056 C 69.84561810668365 48.48072500720282 27.336654875244733 C 0.0 **** -0.24
18057 H 69.58573058703777 49.42940026586463 27.807651978202358 H 0.0 **** 0.06
18058 H 68.93442940462776 47.97538305857472 27.014429472682195 H 0.0 **** 0.06
18059 H 70.37585822688257 47.85263069355011 28.05187397943149 H 0.0 **** 0.06
18060 H 70.48323931484958 48.666702971526774 26.47309318471207 H 0.0 **** 0.06
18061 C 67.59218285799994 5.794898363675401 117.68195859192903 C 0.0 **** -0.24
18062 H 68.07193631476596 4.850301157028468 117.93699814242797 H 0.0 **** 0.06
18063 H 66.54816193271117 5.613513935037261 117.42461150629057 H 0.0 **** 0.06
18064 H 68.10409779548309 6.243334665289808 116.82966959708676 H 0.0 **** 0.06
18065 H 67.64455026450568 6.471761538653382 118.53467505222152 H 0.0 **** 0.06
18066 C 51.33242955635882 124.09314719481296 40.61446950677097 C 0.0 **** -0.24
18067 H 51.5919136727083 125.15068393280023 40.66842819646644 H 0.0 **** 0.06
18068 H 52.23216371052138 123.4916493851535 40.75211552955861 H 0.0 **** 0.06
18069 H 50.89582415239724 123.87588301532895 39.639851404562876 H 0.0 **** 0.06
18070 H 50.61255020481616 123.85479847145052 41.39689396051804 H 0.0 **** 0.06
18071 C 26.809781081139086 112.71366348815049 120.02046371177352 C 0.0 **** -0.24
18072 H 26.66344092378737 113.50682981543115 119.28813377630871 H 0.0 **** 0.06
18073 H 26.90450908229333 113.14979413341355 121.0142408807215 H 0.0 **** 0.06
18074 H 27.716222886510785 112.15937334357606 119.77792271263763 H 0.0 **** 0.06
18075 H 25.95482252247797 112.03813847483079 119.99938603872528 H 0.0 **** 0.06
18076 C 123.04910939822759 42.588898773830095 81.02277510054728 C 0.0 **** -0.24
18077 H 123.92021938571321 42.42796268882161 80.38802128186887 H 0.0 **** 0.06
18078 H 122.34873316917768 41.7633296517553 80.89461404845918 H 0.0 **** 0.06
18079 H 122.56428074160863 43.524650332504365 80.74360366015986 H 0.0 **** 0.06
18080 H 123.36411404365839 42.63969966811794 82.06527394499813 H 0.0 **** 0.06
18081 C 104.85335134409019 116.79063727752089 91.37557288748579 C 0.0 **** -0.24
18082 H 104.34928979397932 115.84173435489339 91.55805754328719 H 0.0 **** 0.06
18083 H 104.11788642438034 117.59497330323228 91.36244369736471 H 0.0 **** 0.06
18084 H 105.3661884129196 116.74960128804355 90.41457254205011 H 0.0 **** 0.06
18085 H 105.57924977141778 116.9740077752451 92.16784317685631 H 0.0 **** 0.06
18086 C 15.567789637348255 32.22647450101252 53.7707433808655 C 0.0 **** -0.24
18087 H 14.696069638458312 31.90335134866558 54.339835768276004 H 0.0 **** 0.06
18088 H 16.454784857203094 32.16928598442729 54.40155905535073 H 0.0 **** 0.06
18089 H 15.423502741997197 33.25466627728517 53.437476991240516 H 0.0 **** 0.06
18090 H 15.69515653299311 31.578722637646933 52.90357404940377 H 0.0 **** 0.06
18091 C 90.59003168491988 99.61110621335834 24.985740978198578 C 0.0 **** -0.24
18092 H 90.20934169296048 98.91312602575371 25.73155279794662 H 0.0 **** 0.06
18093 H 89.80651798650743 99.82679687999766 24.257996931106902 H 0.0 **** 0.06
18094 H 91.44629943302233 99.16764205317057 24.476748249318405 H 0.0 **** 0.06
18095 H 90.8956907221254 100.53513677695332 25.47574556886775 H 0.0 **** 0.06
18096 C 48.16359989153307 31.9153946473115 122.90570402530733 C 0.0 **** -0.24
18097 H 47.62889688770716 31.737307152348336 123.838370084052 H 0.0 **** 0.06
18098 H 47.45869367395261 32.23611575069259 122.13798420243238 H 0.0 **** 0.06
18099 H 48.655688483432286 30.99716760350111 122.58760766809706 H 0.0 **** 0.06
18100 H 48.9120237206979 32.69404580154273 123.06020886332325 H 0.0 **** 0.06
18101 C 83.33319309226334 116.1890590971717 76.30530664079174 C 0.0 **** -0.24
18102 H 82.70684567466265 115.36734068928992 75.95863068450507 H 0.0 **** 0.06
18103 H 83.72289163786434 116.73678118251259 75.44735616346749 H 0.0 **** 0.06
18104 H 84.1631080780245 115.79093701173011 76.89053692330573 H 0.0 **** 0.06
18105 H 82.7406613686129 116.86132432957056 76.92680977871879 H 0.0 **** 0.06
18106 C 121.43114111712134 38.56780003598609 45.77712854247112 C 0.0 **** -0.24
18107 H 121.68672532167699 37.64135404544888 45.262934993248535 H 0.0 **** 0.06
18108 H 121.1725118091154 39.33085539548583 45.0421367471876 H 0.0 **** 0.06
18109 H 122.28408027362235 38.9037071739942 46.36579618261443 H 0.0 **** 0.06
18110 H 120.58033736120109 38.39459660473199 46.43572248607336 H 0.0 **** 0.06
18111 C 113.67320541417024 59.55001361946836 47.60784558009016 C 0.0 **** -0.24
18112 H 114.18257001722526 60.239264754918935 48.281397395517175 H 0.0 **** 0.06
18113 H 114.33746844816346 59.29219073412651 46.78279923663381 H 0.0 **** 0.06
18114 H 112.77363828324616 60.024177839819885 47.215239232987216 H 0.0 **** 0.06
18115 H 113.39970487342958 58.64605308047595 48.1520994464054 H 0.0 **** 0.06
18116 C 65.26056362570927 64.04927010327997 20.3045188302587 C 0.0 **** -0.24
18117 H 65.77072598193544 64.89595049863127 19.84751004489086 H 0.0 **** 0.06
18118 H 64.24049206909072 64.33647907288145 20.561739665482094 H 0.0 **** 0.06
18119 H 65.79214797642246 63.74909020864621 21.20826085837799 H 0.0 **** 0.06
18120 H 65.2380854706374 63.21562300474626 19.60287811105951 H 0.0 **** 0.06
18121 C 40.525011188319695 84.80039618776789 22.799459215652973 C 0.0 **** -0.24
18122 H 40.21946634168347 85.7099570182072 22.282045524928407 H 0.0 **** 0.06
18123 H 39.76643579900767 84.03035717038773 22.660546519294172 H 0.0 **** 0.06
18124 H 40.64190578591152 85.0100103669925 23.862765862553204 H 0.0 **** 0.06
18125 H 41.47475198521428 84.45265677932997 22.39162805359058 H 0.0 **** 0.06
18126 C 11.566063599342925 66.0279796986311 8.687409440092495 C 0.0 **** -0.24
18127 H 11.448087376349562 66.0560596357819 7.604188504169542 H 0.0 **** 0.06
18128 H 12.01526640253283 66.96026530842838 9.028382756742815 H 0.0 **** 0.06
18129 H 12.210837853084342 65.19204090604623 8.960665780591228 H 0.0 **** 0.06
18130 H 10.589703301945931 65.90092936292737 9.154990715138297 H 0.0 **** 0.06
18131 C 36.552981505228956 9.463974220221143 26.87754066540228 C 0.0 **** -0.24
18132 H 37.20061918652726 9.811141973235756 27.682706774395825 H 0.0 **** 0.06
18133 H 36.90806684830011 9.864168321375338 25.927853057446214 H 0.0 **** 0.06
18134 H 35.53396260944993 9.805989104334461 27.05856215854189 H 0.0 **** 0.06
18135 H 36.57048107612286 8.37408379978918 26.842853822610323 H 0.0 **** 0.06
18136 C 95.27644536396363 116.83602127781654 120.57713284754448 C 0.0 **** -0.24
18137 H 94.67771159955444 116.91377229528129 119.67030262128964 H 0.0 **** 0.06
18138 H 94.62721610584472 116.90915284528782 121.44990122468278 H 0.0 **** 0.06
18139 H 96.00876668405763 117.64342888800653 120.59997884366123 H 0.0 **** 0.06
18140 H 95.79473505168804 115.87632848054307 120.58849493549553 H 0.0 **** 0.06
18141 C 70.58886970614242 54.94641538106241 53.95824601544115 C 0.0 **** -0.24
18142 H 69.77356590685787 55.595164782300685 54.27985672854129 H 0.0 **** 0.06
18143 H 70.86522667424157 55.19167988030311 52.93269414867433 H 0.0 **** 0.06
18144 H 70.2664195589355 53.906589030734835 54.009251086443726 H 0.0 **** 0.06
18145 H 71.4484042802589 55.09299162290421 54.6121559316893 H 0.0 **** 0.06
18146 C 61.262732149438435 120.9741498171878 117.86800823567421 C 0.0 **** -0.24
18147 H 61.93182569245565 120.67065484681265 118.67354478721182 H 0.0 **** 0.06
18148 H 60.230978565474814 120.77510942675497 118.15829766241647 H 0.0 **** 0.06
18149 H 61.50275319704768 120.41032406218875 116.96672588894734 H 0.0 **** 0.06
18150 H 61.387399726143755 122.03977865356734 117.67462604807345 H 0.0 **** 0.06
18151 C 95.88154144676804 96.23556434823917 108.02576752385593 C 0.0 **** -0.24
18152 H 95.47752168264844 97.1871888320371 107.68041069226263 H 0.0 **** 0.06
18153 H 96.33605736005063 95.70786937616217 107.1863785463259 H 0.0 **** 0.06
18154 H 95.07770982000397 95.63071587166152 108.44389840542223 H 0.0 **** 0.06
18155 H 96.63583712543078 96.41792293309769 108.79230711205443 H 0.0 **** 0.06
18156 C 75.73227986767218 69.66822538559785 38.66666094688787 C 0.0 **** -0.24
18157 H 74.97224215132218 69.57910984200201 39.44295249409136 H 0.0 **** 0.06
18158 H 75.58996152788937 68.87979096454544 37.92775018729398 H 0.0 **** 0.06
18159 H 76.72185770311548 69.57275223185955 39.114531578389105 H 0.0 **** 0.06
18160 H 75.64442203363764 70.6411865862348 38.18217871990497 H 0.0 **** 0.06
18161 C 99.04040129337129 126.72761281862708 6.64669097686496 C 0.0 **** -0.24
18162 H 99.26988405179337 127.71284504262813 7.054419662527437 H 0.0 **** 0.06
18163 H 99.01731241039454 126.78229637537815 5.557499450929754 H 0.0 **** 0.06
18164 H 98.0690409281708 126.39975312432574 7.014978162617666 H 0.0 **** 0.06
18165 H 99.80649681394414 126.0181440993892 6.959689804035435 H 0.0 **** 0.06
18166 C 27.918808401712568 12.47516059158096 42.62543041648382 C 0.0 **** -0.24
18167 H 28.463106725502996 11.664251568087451 43.10989443417405 H 0.0 **** 0.06
18168 H 27.294563426492175 12.983374570316272 43.36069381068 H 0.0 **** 0.06
18169 H 27.290839097857997 12.068063063242477 41.833595479085844 H 0.0 **** 0.06
18170 H 28.62858624431624 13.183982535301197 42.1983070544525 H 0.0 **** 0.06
18171 C 30.71925577532626 89.40135838045319 115.94520937757355 C 0.0 **** -0.24
18172 H 30.965942344840464 88.43257117236423 116.37894837700094 H 0.0 **** 0.06
18173 H 31.622342546624523 90.00760169139114 115.87313433560968 H 0.0 **** 0.06
18174 H 29.990691339956427 89.90822530202138 116.57946434453926 H 0.0 **** 0.06
18175 H 30.29620340454335 89.25729804720946 114.95164271427585 H 0.0 **** 0.06
18176 C 99.05190843328933 124.75624200787644 3.467236133268898 C 0.0 **** -0.24
18177 H 98.93673982505919 124.9100291089395 2.3947837422396105 H 0.0 **** 0.06
18178 H 98.07514122459656 124.57319275537648 3.9159847361785864 H 0.0 **** 0.06
18179 H 99.49701608152476 125.6446246115438 3.9159576881471025 H 0.0 **** 0.06
18180 H 99.69987681646917 123.8969282244628 3.643032397138029 H 0.0 **** 0.06
18181 C 103.92592694625273 23.152156285541736 82.5372914708688 C 0.0 **** -0.24
18182 H 104.00624799706156 22.726944142998974 81.53712368307114 H 0.0 **** 0.06
18183 H 102.88862567574955 23.11097048869999 82.86834770243561 H 0.0 **** 0.06
18184 H 104.2610900794665 24.18985808414837 82.51797306096319 H 0.0 **** 0.06
18185 H 104.550663499905 22.581253031457464 83.22515864885625 H 0.0 **** 0.06
18186 C 115.56676421491306 9.07883454047817 54.25662043270303 C 0.0 **** -0.24
18187 H 116.40915667786408 8.486263619951046 53.90076221250365 H 0.0 **** 0.06
18188 H 115.52098592679542 10.015517836343008 53.70031901419601 H 0.0 **** 0.06
18189 H 115.69567843430514 9.291567497130245 55.31808843035296 H 0.0 **** 0.06
18190 H 114.6423624748636 8.52119642333372 54.10763184549765 H 0.0 **** 0.06
18191 C 102.18323938408977 123.41816784462283 90.26498041867438 C 0.0 **** -0.24
18192 H 101.90629252894362 124.36290596980157 90.73242214033792 H 0.0 **** 0.06
18193 H 102.29601611209378 122.65209973926459 91.03152884203666 H 0.0 **** 0.06
18194 H 103.12533572319794 123.53976588607765 89.73036010809003 H 0.0 **** 0.06
18195 H 101.40405658299936 123.11857665574107 89.56316860242961 H 0.0 **** 0.06
18196 C 2.866968490865048 9.148778789316566 124.58533337807282 C 0.0 **** -0.24
18197 H 2.3679700693400214 8.671357881227351 125.42925421506689 H 0.0 **** 0.06
18198 H 3.872435406694162 8.740867947544558 124.4810476976096 H 0.0 **** 0.06
18199 H 2.9259435619475624 10.223176844942884 124.75925067489464 H 0.0 **** 0.06
18200 H 2.300337386830325 8.958624602093721 123.67333222921604 H 0.0 **** 0.06
18201 C 124.86059158488688 38.76101424433875 37.89359501927386 C 0.0 **** -0.24
18202 H 124.26439504871747 39.36160866415571 38.58135701524995 H 0.0 **** 0.06
18203 H 125.77084590570028 39.30199245686828 37.63613224260387 H 0.0 **** 0.06
18204 H 124.28459987332054 38.56624484258967 36.989251684889524 H 0.0 **** 0.06
18205 H 125.12086360421857 37.81576831099157 38.36959192516953 H 0.0 **** 0.06
18206 C 46.07541551926251 40.71805387456965 125.78386718681688 C 0.0 **** -0.24
18207 H 46.041823400042354 40.0883627675325 124.89405809411105 H 0.0 **** 0.06
18208 H 46.60645881256985 40.194651435598246 126.57986621907298 H 0.0 **** 0.06
18209 H 45.058894234598085 40.939461210898486 126.10949543173649 H 0.0 **** 0.06
18210 H 46.593110235946334 41.64833583133884 125.55098286673329 H 0.0 **** 0.06
18211 C 16.325883339962004 26.510765896949408 72.15092763753822 C 0.0 **** -0.24
18212 H 16.43016648967381 27.52857430780182 72.52626949516073 H 0.0 **** 0.06
18213 H 15.268301228979311 26.2629940256966 72.05798318763888 H 0.0 **** 0.06
18214 H 16.80300227507601 25.817827216343147 72.84487435534678 H 0.0 **** 0.06
18215 H 16.80479393708771 26.433039535076247 71.17419697105598 H 0.0 **** 0.06
18216 C 46.083700316460664 109.88593741098599 5.93413160866146 C 0.0 **** -0.24
18217 H 45.17997227249602 110.36601735000656 6.310358110173468 H 0.0 **** 0.06
18218 H 46.773284268644545 110.6466873180013 5.568549865256799 H 0.0 **** 0.06
18219 H 45.82247631051687 109.21071279140618 5.119745237395932 H 0.0 **** 0.06
18220 H 46.55609242722083 109.32071052766429 6.737902574931894 H 0.0 **** 0.06
18221 C 112.73437085293676 91.1326721185644 9.885330985464904 C 0.0 **** -0.24
18222 H 112.72215150277992 92.17679382722648 10.199378852704143 H 0.0 **** 0.06
18223 H 111.80479687387947 90.65183526057041 10.189995727080742 H 0.0 **** 0.06
18224 H 113.57762552597455 90.62330157042382 10.352389550397149 H 0.0 **** 0.06
18225 H 112.83284827877418 91.08067989749513 8.801077108421012 H 0.0 **** 0.06
18226 C 40.421651791594506 123.72467213080927 60.82537925796605 C 0.0 **** -0.24
18227 H 40.524151229235144 124.81000667309644 60.81879985675212 H 0.0 **** 0.06
18228 H 39.430247380200974 123.45536904437654 61.18800102118912 H 0.0 **** 0.06
18229 H 41.17815190806938 123.29379056386068 61.48079674803911 H 0.0 **** 0.06
18230 H 40.555981714787016 123.34103688910943 59.8139367483744 H 0.0 **** 0.06
18231 C 32.75061119972517 37.6738404020613 97.44976234969022 C 0.0 **** -0.24
18232 H 33.673196233506786 37.84650352214973 98.00403013412728 H 0.0 **** 0.06
18233 H 32.96978763574363 37.102057631253686 96.54786566008517 H 0.0 **** 0.06
18234 H 32.30763595137867 38.6318302553145 97.1743010314168 H 0.0 **** 0.06
18235 H 32.051059140117474 37.11704726203283 98.0731681408995 H 0.0 **** 0.06
18236 C 59.596650396912224 38.354317474019815 19.051498999686743 C 0.0 **** -0.24
18237 H 59.673513950861235 38.80682653874063 20.04084630330081 H 0.0 **** 0.06
18238 H 60.474388289472216 38.619126716144955 18.46185187290878 H 0.0 **** 0.06
18239 H 58.6993302485682 38.719691102189955 18.553186777295565 H 0.0 **** 0.06
18240 H 59.540515735603805 37.27033446008915 19.152564378219296 H 0.0 **** 0.06
18241 C 84.65358012186287 84.4948055141498 6.6990392311511755 C 0.0 **** -0.24
18242 H 83.61844746801732 84.63390420520207 6.388291143248125 H 0.0 **** 0.06
18243 H 85.01197709886787 83.52814258196648 6.346130157212201 H 0.0 **** 0.06
18244 H 84.71379317259967 84.52925490401688 7.787079730412643 H 0.0 **** 0.06
18245 H 85.26954069247114 85.28823560829767 6.27542059726477 H 0.0 **** 0.06
18246 C 105.62832131133601 78.20235604183512 86.4063683867469 C 0.0 **** -0.24
18247 H 105.70483308237644 77.527894019359 87.25931938687984 H 0.0 **** 0.06
18248 H 106.22103762626745 79.09764744517702 86.59679212403722 H 0.0 **** 0.06
18249 H 104.58520106305392 78.48174644924114 86.25737633396697 H 0.0 **** 0.06
18250 H 106.00150085930753 77.70234673279208 85.51355032574683 H 0.0 **** 0.06
18251 C 75.36774848785485 124.29624878749951 79.4156607290721 C 0.0 **** -0.24
18252 H 74.59447309522918 123.93022950253373 80.09089291615453 H 0.0 **** 0.06
18253 H 76.34833000813627 124.12773188838418 79.86224048392654 H 0.0 **** 0.06
18254 H 75.2239344361732 125.36318651212616 79.24354184182761 H 0.0 **** 0.06
18255 H 75.30311264155021 123.76307750743604 78.4662829558468 H 0.0 **** 0.06
18256 C 45.57296617085916 24.47334438056297 36.415302008504824 C 0.0 **** -0.24
18257 H 46.24408358403545 23.75303965619502 36.88307330770923 H 0.0 **** 0.06
18258 H 44.621029445457026 24.479244087460742 36.94663820925053 H 0.0 **** 0.06
18259 H 45.40769483241739 24.193100196528718 35.37476172667033 H 0.0 **** 0.06
18260 H 46.02039540028083 25.465603861144302 36.45795869576643 H 0.0 **** 0.06
18261 C 12.77287788686101 85.28920158289469 114.80719104652103 C 0.0 **** -0.24
18262 H 12.286189614558538 86.01314870841594 114.15423583314778 H 0.0 **** 0.06
18263 H 13.499144253497775 84.71278516591732 114.23469064171591 H 0.0 **** 0.06
18264 H 12.024245706172792 84.61703606297087 115.2272694632514 H 0.0 **** 0.06
18265 H 13.282482853046474 85.81458323674283 115.6152401771096 H 0.0 **** 0.06
18266 C 50.829851060182264 128.46760487791812 6.1903068260383804 C 0.0 **** -0.24
18267 H 50.728860280625526 129.0663275457789 5.28491270407082 H 0.0 **** 0.06
18268 H 49.887142359500885 128.47706617033424 6.737562039853145 H 0.0 **** 0.06
18269 H 51.61810139923453 128.88549872188406 6.816187473860566 H 0.0 **** 0.06
18270 H 51.08383895113417 127.44207452880505 5.921313981084779 H 0.0 **** 0.06
18271 C 95.34463805081494 49.04432274860464 22.48374391628147 C 0.0 **** -0.24
18272 H 96.05939271884348 48.85884660170426 21.681289621637376 H 0.0 **** 0.06
18273 H 95.47396601160045 48.29487727121192 23.264941238353813 H 0.0 **** 0.06
18274 H 94.33087849137587 48.98513405779774 22.086615763092446 H 0.0 **** 0.06
18275 H 95.5156774109702 50.03674204728628 22.89925067851628 H 0.0 **** 0.06
18276 C 36.77098952922614 102.013784571407 32.51455011988537 C 0.0 **** -0.24
18277 H 35.8520024878145 101.42891026760755 32.536166758269104 H 0.0 **** 0.06
18278 H 36.86087696816878 102.51495343545074 31.551032885770354 H 0.0 **** 0.06
18279 H 37.625576503722755 101.35315427271249 32.66233106730857 H 0.0 **** 0.06
18280 H 36.746658674186165 102.75811331723985 33.31082910958767 H 0.0 **** 0.06
18281 C 60.711918197748034 16.730149511863658 98.21158830600244 C 0.0 **** -0.24
18282 H 60.8618117958098 15.678678537307462 97.9671846414795 H 0.0 **** 0.06
18283 H 60.84481882379373 16.876164397874902 99.28355124634635 H 0.0 **** 0.06
18284 H 59.70309929548284 17.029547311211445 97.92627990030145 H 0.0 **** 0.06
18285 H 61.437473265226316 17.335876450093224 97.66851906659167 H 0.0 **** 0.06
18286 C 13.78625895451674 110.50545809490947 24.72418504744497 C 0.0 **** -0.24
18287 H 13.743007797009952 109.57018333434974 24.165519706083387 H 0.0 **** 0.06
18288 H 12.827912811654755 110.6789405240329 25.214045240135825 H 0.0 **** 0.06
18289 H 13.999676492994297 111.327171087641 24.041449290713572 H 0.0 **** 0.06
18290 H 14.57336949574298 110.44336516714102 25.476097922247206 H 0.0 **** 0.06
18291 C 19.76394800089063 7.200921171387421 58.36908710788046 C 0.0 **** -0.24
18292 H 20.312846978891372 8.087950820403336 58.684143836937835 H 0.0 **** 0.06
18293 H 18.827666685790533 7.13781739949772 58.92495108927815 H 0.0 **** 0.06
18294 H 20.364300084350056 6.313012722339124 58.56551620882502 H 0.0 **** 0.06
18295 H 19.54960221694003 7.2665824698665915 57.302274583593544 H 0.0 **** 0.06
18296 C 117.84947221357669 24.40365495007319 23.113257735016575 C 0.0 **** -0.24
18297 H 118.71218439565826 24.895769161369117 22.66287253285467 H 0.0 **** 0.06
18298 H 117.43996295973477 25.038659064763294 23.899478104349143 H 0.0 **** 0.06
18299 H 118.1577068398451 23.44847911463563 23.539389235907834 H 0.0 **** 0.06
18300 H 117.08960771093786 24.23277329048142 22.350658319535533 H 0.0 **** 0.06
18301 C 97.82041946663799 50.7806364757766 123.9705071027518 C 0.0 **** -0.24
18302 H 97.60318378180051 50.026514653930775 124.72703827320099 H 0.0 **** 0.06
18303 H 98.69552971735817 51.35624496951182 124.27215488156904 H 0.0 **** 0.06
18304 H 96.96471408778018 51.447563031040175 123.86540361906796 H 0.0 **** 0.06
18305 H 98.01905243344191 50.291408806040494 123.01659896411722 H 0.0 **** 0.06
18306 C 53.600078454611776 41.611980826352834 79.99055090804313 C 0.0 **** -0.24
18307 H 53.87053347044338 40.55600657599192 79.98957947245276 H 0.0 **** 0.06
18308 H 52.78476785870316 41.777109391382844 80.69443415289453 H 0.0 **** 0.06
18309 H 53.28340946401471 41.90660763934187 78.99007089431566 H 0.0 **** 0.06
18310 H 54.4636674831205 42.206918355208806 80.28842977054737 H 0.0 **** 0.06
18311 C 125.50112766913375 43.112996998374975 57.51524644837322 C 0.0 **** -0.24
18312 H 126.48328448994589 43.21448693567326 57.053552565907694 H 0.0 **** 0.06
18313 H 125.18197338011316 44.079423913159 57.90657760858724 H 0.0 **** 0.06
18314 H 125.55615206576317 42.391313636228745 58.33107301349594 H 0.0 **** 0.06
18315 H 124.78372527244917 42.76691261999774 56.77167679389032 H 0.0 **** 0.06
18316 C 84.13646404913771 115.90878648559155 130.13601198857404 C 0.0 **** -0.24
18317 H 83.63706579669972 115.25674167685487 130.85311062966983 H 0.0 **** 0.06
18318 H 85.18761276709196 116.00965309333185 130.4065203595888 H 0.0 **** 0.06
18319 H 83.66215210328201 116.89017048204707 130.14655259983076 H 0.0 **** 0.06
18320 H 84.05668499889705 115.47785966148093 129.1378156827435 H 0.0 **** 0.06
18321 C 93.13351289478709 39.89834170731666 2.7807035849044723 C 0.0 **** -0.24
18322 H 93.6524734302325 40.697521312046575 2.2509438067854717 H 0.0 **** 0.06
18323 H 92.08825570712257 39.87732286917924 2.4725508924017845 H 0.0 **** 0.06
18324 H 93.192763651517 40.07752196499936 3.8543847618834093 H 0.0 **** 0.06
18325 H 93.60185332575512 38.94246137852008 2.5460261284540593 H 0.0 **** 0.06
18326 C 41.52101649294934 102.40143203764904 20.102485823952406 C 0.0 **** -0.24
18327 H 41.202371803824576 101.36090513504473 20.054802417063797 H 0.0 **** 0.06
18328 H 42.095223471576475 102.56389328524392 21.01596559682696 H 0.0 **** 0.06
18329 H 40.64527441559835 103.0506213023969 20.10325860686021 H 0.0 **** 0.06
18330 H 42.142705512112514 102.63098540344248 19.237421402513178 H 0.0 **** 0.06
18331 C 50.28900878911608 115.71923583515125 75.49193926364148 C 0.0 **** -0.24
18332 H 49.835348930046365 116.70960048407414 75.46889557948961 H 0.0 **** 0.06
18333 H 50.00020413894515 115.20902138061173 76.41136006377843 H 0.0 **** 0.06
18334 H 51.37478626926608 115.81465150238891 75.45491689756119 H 0.0 **** 0.06
18335 H 49.94578384300772 115.14227181925558 74.63277823559167 H 0.0 **** 0.06
18336 C 102.90827424348856 42.660228238496984 80.10702330836425 C 0.0 **** -0.24
18337 H 102.03215568402163 42.82103480184901 79.47820057420138 H 0.0 **** 0.06
18338 H 103.36303892278096 41.70179457057304 79.85735665060201 H 0.0 **** 0.06
18339 H 102.6059752944181 42.657654391095434 81.15446457829826 H 0.0 **** 0.06
18340 H 103.62788049930185 43.46092384437367 79.93745376368524 H 0.0 **** 0.06
18341 C 36.004956685155236 44.481810668411754 4.223664442903612 C 0.0 **** -0.24
18342 H 34.976997906109226 44.47585383017639 4.587390694757907 H 0.0 **** 0.06
18343 H 36.52417881225253 45.35480753446271 4.61861292270957 H 0.0 **** 0.06
18344 H 36.00479868025559 44.520011991246406 3.134479846191393 H 0.0 **** 0.06
18345 H 36.51182370472366 43.57578278580178 4.554694244762231 H 0.0 **** 0.06
18346 C 101.40529133580344 130.86318100686717 34.14498848684843 C 0.0 **** -0.24
18347 H 102.13741287124009 130.41150280453013 34.81512383448168 H 0.0 **** 0.06
18348 H 100.440860675892 130.37174770357717 34.277620847401664 H 0.0 **** 0.06
18349 H 101.73599388136029 130.74305246073214 33.113583425863 H 0.0 **** 0.06
18350 H 101.30842241765248 131.9234526191622 34.375318482914906 H 0.0 **** 0.06
18351 C 80.73349580461546 25.539343070363998 113.08473848299386 C 0.0 **** -0.24
18352 H 80.82110650026276 24.461395170133756 112.95005684962203 H 0.0 **** 0.06
18353 H 80.60023216752285 26.01712283126642 112.11404296800359 H 0.0 **** 0.06
18354 H 81.63840146905238 25.92106256579325 113.55716987009177 H 0.0 **** 0.06
18355 H 79.87300157347943 25.756013876384316 113.7182303484158 H 0.0 **** 0.06
18356 C 106.56632035334832 97.51656422301703 93.15441182942202 C 0.0 **** -0.24
18357 H 106.01270690096783 97.4762810894741 94.09333992748375 H 0.0 **** 0.06
18358 H 106.2358303624209 96.70727665659174 92.5032709281674 H 0.0 **** 0.06
18359 H 107.63247066831454 97.40830388103717 93.35688095290917 H 0.0 **** 0.06
18360 H 106.38400891741324 98.47365256448299 92.66624803905252 H 0.0 **** 0.06
18361 C 17.52368271898422 85.33107648757083 13.136772453263845 C 0.0 **** -0.24
18362 H 17.005469739966316 86.28139780950075 13.007454324002694 H 0.0 **** 0.06
18363 H 18.372754376472017 85.28377566676704 12.45434116329119 H 0.0 **** 0.06
18364 H 16.837927751108168 84.51114181151058 12.920266576181874 H 0.0 **** 0.06
18365 H 17.87717798533305 85.24775686396534 14.1640364673367 H 0.0 **** 0.06
18366 C 67.13520879396066 89.43925170551353 122.14410385089374 C 0.0 **** -0.24
18367 H 67.4605046011219 88.4199602120948 122.35527920389308 H 0.0 **** 0.06
18368 H 67.86959631487932 90.1424603456918 122.5374040798383 H 0.0 **** 0.06
18369 H 66.16991672164517 89.61797054551866 122.61849113833861 H 0.0 **** 0.06
18370 H 67.04201053475566 89.57460978521061 121.06683892938952 H 0.0 **** 0.06
18371 C 42.182212442748096 13.646350554347691 9.182217386489299 C 0.0 **** -0.24
18372 H 41.7287939228259 13.535336240698882 8.197085946499328 H 0.0 **** 0.06
18373 H 42.10528718699916 14.685426128042593 9.502368797965346 H 0.0 **** 0.06
18374 H 43.231465610079084 13.356928385325375 9.134206897725448 H 0.0 **** 0.06
18375 H 41.66128328710943 13.006819561123393 9.895561942860922 H 0.0 **** 0.06
18376 C 88.15631554969247 49.40325518461462 70.44012661577878 C 0.0 **** -0.24
18377 H 88.4613643229388 48.395623757356276 70.15878769166369 H 0.0 **** 0.06
18378 H 89.03991357049804 50.02827626459799 70.56738866165958 H 0.0 **** 0.06
18379 H 87.59847090670027 49.36577180443598 71.37619598306614 H 0.0 **** 0.06
18380 H 87.52414550640165 49.822878221830564 69.65718150434984 H 0.0 **** 0.06
18381 C 36.03326508810984 68.76871876027934 15.857487939229202 C 0.0 **** -0.24
18382 H 35.8299455126347 69.02156974874825 16.898679596632377 H 0.0 **** 0.06
18383 H 35.56543039258878 69.50796107994981 15.207602612746172 H 0.0 **** 0.06
18384 H 35.62652522491407 67.78157142505444 15.638357198725174 H 0.0 **** 0.06
18385 H 37.10989288983477 68.76435274523328 15.688322442897103 H 0.0 **** 0.06
18386 C 91.98787340102112 45.566553213640645 78.62001769572062 C 0.0 **** -0.24
18387 H 92.81458459609786 44.998935434442444 78.19240788749839 H 0.0 **** 0.06
18388 H 91.79494665930562 45.21906787886303 79.63472388754666 H 0.0 **** 0.06
18389 H 91.09552091751564 45.423374054029864 78.00986419224485 H 0.0 **** 0.06
18390 H 92.24740346134502 46.62471447426299 78.63974907880426 H 0.0 **** 0.06
18391 C 39.96393983609369 20.434401722076217 74.58031075490612 C 0.0 **** -0.24
18392 H 40.75161183000358 21.118551020550086 74.26300160451268 H 0.0 **** 0.06
18393 H 40.28721061571434 19.89933904379052 75.47379800141596 H 0.0 **** 0.06
18394 H 39.758434134540096 19.721426996591163 73.78298722225531 H 0.0 **** 0.06
18395 H 39.05989255626179 21.00115207456409 74.80342515108947 H 0.0 **** 0.06
18396 C 50.323093529881874 125.36270143306263 2.4031074594387505 C 0.0 **** -0.24
18397 H 50.377620364793046 126.25354841942976 3.029172923472789 H 0.0 **** 0.06
18398 H 49.52338939829403 125.48188289956501 1.6711548469066173 H 0.0 **** 0.06
18399 H 50.11934578600136 124.49246430869776 3.026302150733642 H 0.0 **** 0.06
18400 H 51.272002640375575 125.22461989045165 1.8855232466617764 H 0.0 **** 0.06
18401 C 122.05170675646417 39.18209223405637 19.65183780037904 C 0.0 **** -0.24
18402 H 122.12912543545414 40.106409634932724 20.225263663201517 H 0.0 **** 0.06
18403 H 122.83548322850638 38.49307562606403 19.966234069119068 H 0.0 **** 0.06
18404 H 122.16475976469368 39.4020655515383 18.59089899371115 H 0.0 **** 0.06
18405 H 121.0764644961267 38.727373591259756 19.82712324345863 H 0.0 **** 0.06
18406 C 123.08787571377582 17.891813873621118 54.168122838173446 C 0.0 **** -0.24
18407 H 123.4639612517351 18.514574463781727 54.97922599583674 H 0.0 **** 0.06
18408 H 122.39076238641383 18.469132672683216 53.56067202407016 H 0.0 **** 0.06
18409 H 122.57590201558298 17.024121112903174 54.58445045928406 H 0.0 **** 0.06
18410 H 123.92094252626248 17.559258363886073 53.5495454866664 H 0.0 **** 0.06
18411 C 101.8211045466004 57.91832653325082 108.21272997027688 C 0.0 **** -0.24
18412 H 102.46773529942084 57.87946601507065 107.33647260864541 H 0.0 **** 0.06
18413 H 102.25024766283758 58.59662040400369 108.95087774452111 H 0.0 **** 0.06
18414 H 101.73210991194594 56.92167794390707 108.643119238629 H 0.0 **** 0.06
18415 H 100.83436843042875 58.27734082082779 107.91912294732111 H 0.0 **** 0.06
18416 C 10.497202881730743 11.589515055486856 66.8545692097693 C 0.0 **** -0.24
18417 H 9.658365427582055 12.157236034228589 66.45288022423756 H 0.0 **** 0.06
18418 H 10.350832001530932 11.432324695960375 67.92289883590978 H 0.0 **** 0.06
18419 H 11.421616367672868 12.143969113649149 66.6910886094969 H 0.0 **** 0.06
18420 H 10.558514882907502 10.62560584250457 66.34926994877084 H 0.0 **** 0.06
18421 C 73.30331022549416 0.2168238472469568 84.7559439456735 C 0.0 **** -0.24
18422 H 73.83797986301727 0.8119058933402528 85.49565210041203 H 0.0 **** 0.06
18423 H 72.3248160704706 -0.05854848932747814 85.14943439690768 H 0.0 **** 0.06
18424 H 73.87383479837086 -0.6860692163179181 84.53503134695359 H 0.0 **** 0.06
18425 H 73.17678287576899 0.7987376509698549 83.84305916748468 H 0.0 **** 0.06
18426 C 27.242901903720337 101.48963044615377 88.51568246118423 C 0.0 **** -0.24
18427 H 26.309454654983156 101.26995905606125 87.99826470058834 H 0.0 **** 0.06
18428 H 28.072337444751952 101.02086082390414 87.98516172325253 H 0.0 **** 0.06
18429 H 27.194843495023434 101.09819559423252 89.53258250563982 H 0.0 **** 0.06
18430 H 27.39509238366007 102.56798383112877 88.54835427044803 H 0.0 **** 0.06
18431 C 111.90564747686858 99.19428894197041 23.307510251802512 C 0.0 **** -0.24
18432 H 110.84131288116663 99.34498610861728 23.49565609801988 H 0.0 **** 0.06
18433 H 112.40927423282147 100.16075894858452 23.27902675197896 H 0.0 **** 0.06
18434 H 112.03664184357206 98.6869355264091 22.351610430191897 H 0.0 **** 0.06
18435 H 112.3319536948569 98.58504748494582 24.104000227116103 H 0.0 **** 0.06
18436 C 121.64091821295222 92.77174176939685 110.28768971872238 C 0.0 **** -0.24
18437 H 122.69966529497458 93.00984013360377 110.18154218112774 H 0.0 **** 0.06
18438 H 121.04331372158174 93.61562611993186 109.94107376716782 H 0.0 **** 0.06
18439 H 121.41681562127758 92.57253050144924 111.3348765595198 H 0.0 **** 0.06
18440 H 121.40531069846224 91.89009304643255 109.69088141782127 H 0.0 **** 0.06
18441 C 40.00815951415862 90.01559393541172 109.42555034629235 C 0.0 **** -0.24
18442 H 39.75859422223775 90.06764916567705 110.48558379817426 H 0.0 **** 0.06
18443 H 40.95960391851611 89.4957422918922 109.3031027365794 H 0.0 **** 0.06
18444 H 40.08925499110467 91.02373365532917 109.0210343245568 H 0.0 **** 0.06
18445 H 39.22643649623916 89.47264543998183 108.89485693989117 H 0.0 **** 0.06
18446 C 20.784113293721276 91.43444916146171 90.81828470057303 C 0.0 **** -0.24
18447 H 21.807115583268086 91.29112638378223 91.1644180541087 H 0.0 **** 0.06
18448 H 20.277475601110808 92.14945793933015 91.46677000127863 H 0.0 **** 0.06
18449 H 20.25469549426606 90.48165346914038 90.84359611754351 H 0.0 **** 0.06
18450 H 20.79662676004196 91.81588200927479 89.79674080685254 H 0.0 **** 0.06
18451 C 50.98008036562797 41.638260631748835 86.23027898677373 C 0.0 **** -0.24
18452 H 50.98157425647483 42.46779288096573 85.52343143159715 H 0.0 **** 0.06
18453 H 52.00157611314272 41.435391133689535 86.5536532815624 H 0.0 **** 0.06
18454 H 50.56835626042728 40.75152188545155 85.74816890074067 H 0.0 **** 0.06
18455 H 50.36892708373156 41.898457223222294 87.0944577093744 H 0.0 **** 0.06
18456 C 30.096983910737308 0.7290216722965965 114.72542355107726 C 0.0 **** -0.24
18457 H 30.75366232319945 0.05766233268820997 115.2776169051487 H 0.0 **** 0.06
18458 H 30.672759085229103 1.2538902790130066 113.96247373661544 H 0.0 **** 0.06
18459 H 29.658202953128338 1.4532318405847775 115.41170874478894 H 0.0 **** 0.06
18460 H 29.303714177768853 0.15265706668202483 114.24984767255381 H 0.0 **** 0.06
18461 C 57.43212854167763 110.71615256515511 19.985485218370627 C 0.0 **** -0.24
18462 H 58.38204587406892 110.4884344572312 20.467872953623754 H 0.0 **** 0.06
18463 H 57.39058653862054 111.78021164683352 19.749432067687536 H 0.0 **** 0.06
18464 H 56.61330811064488 110.46131031369843 20.65850900201687 H 0.0 **** 0.06
18465 H 57.34232243339983 110.13530590207009 19.067356412771716 H 0.0 **** 0.06
18466 C 12.438027204151524 33.15151175100422 51.65897729953019 C 0.0 **** -0.24
18467 H 12.865633876819743 33.006648036216944 52.65167039043925 H 0.0 **** 0.06
18468 H 12.689087436065165 32.29881035451933 51.02748335377828 H 0.0 **** 0.06
18469 H 12.845116581884554 34.062755404254546 51.21889457400465 H 0.0 **** 0.06
18470 H 11.354999493653452 33.23985728603327 51.73942893327717 H 0.0 **** 0.06
18471 C 82.8867878093613 65.19338738040602 26.55727908919735 C 0.0 **** -0.24
18472 H 82.272094238491 65.22360995873562 27.457562902670333 H 0.0 **** 0.06
18473 H 83.23854628597688 64.17437043333591 26.393120751259886 H 0.0 **** 0.06
18474 H 83.74120927369347 65.85838817219901 26.679235326229815 H 0.0 **** 0.06
18475 H 82.29411226881238 65.51599895917079 25.701878666128437 H 0.0 **** 0.06
18476 C 120.69469690628296 113.14559525274703 117.34655488179534 C 0.0 **** -0.24
18477 H 120.92140765732648 112.09045944329327 117.5003441631348 H 0.0 **** 0.06
18478 H 121.19596932830177 113.49834624517163 116.44554370883328 H 0.0 **** 0.06
18479 H 121.04222793490402 113.71978485461065 118.20505352519731 H 0.0 **** 0.06
18480 H 119.61760088313054 113.27267200149547 117.23677719953042 H 0.0 **** 0.06
18481 C 32.76347664256639 91.35366104543766 113.43662639733061 C 0.0 **** -0.24
18482 H 32.44080928774906 92.22959315627759 113.99922143178198 H 0.0 **** 0.06
18483 H 31.949110795835338 90.63099089931339 113.38975880317624 H 0.0 **** 0.06
18484 H 33.62371247742857 90.90108813928572 113.93030297912999 H 0.0 **** 0.06
18485 H 33.04092075541513 91.65392431934936 112.42530533011143 H 0.0 **** 0.06
18486 C 99.09567792825004 103.85821086645473 48.58352082359062 C 0.0 **** -0.24
18487 H 100.07565921481367 104.05923037894172 49.01694940235268 H 0.0 **** 0.06
18488 H 98.45275694744991 104.72757983373526 48.720935076526814 H 0.0 **** 0.06
18489 H 98.65057657460532 102.99430443670829 49.076266079721734 H 0.0 **** 0.06
18490 H 99.20656969117594 103.65173776436995 47.51856382993509 H 0.0 **** 0.06
18491 C 46.93337386886762 43.882981300623555 104.94796144432243 C 0.0 **** -0.24
18492 H 46.497945484333144 44.39853279067262 104.09163131772945 H 0.0 **** 0.06
18493 H 47.79989965544462 44.43978761226566 105.30579843156727 H 0.0 **** 0.06
18494 H 47.24185752656854 42.88098097130603 104.65109683296077 H 0.0 **** 0.06
18495 H 46.19274885910366 43.81421914993177 105.74485719788706 H 0.0 **** 0.06
18496 C 42.23422764162092 104.07556336324515 66.34962786486875 C 0.0 **** -0.24
18497 H 41.78625389358538 105.04973186887668 66.15410880511646 H 0.0 **** 0.06
18498 H 41.79437754543849 103.33300829473146 65.6837116960899 H 0.0 **** 0.06
18499 H 42.048215196227545 103.79175948603641 67.38537358104232 H 0.0 **** 0.06
18500 H 43.309387375627836 104.1294537158509 66.17415156074482 H 0.0 **** 0.06
18501 C 101.25948104560382 53.81007418453078 126.93414557625785 C 0.0 **** -0.24
18502 H 100.96751000579377 54.79368824814708 127.29937515532164 H 0.0 **** 0.06
18503 H 100.71853568737896 53.042362391165796 127.48860410989819 H 0.0 **** 0.06
18504 H 102.3318560756781 53.67334622867108 127.07568625932504 H 0.0 **** 0.06
18505 H 101.01992738546159 53.729429437169756 125.87382725530182 H 0.0 **** 0.06
18506 C 6.258986417870176 45.23017720991416 83.50300773588344 C 0.0 **** -0.24
18507 H 6.713893527554376 44.29283448600631 83.82467784745145 H 0.0 **** 0.06
18508 H 5.276530852887959 45.02874550523572 83.07429001499796 H 0.0 **** 0.06
18509 H 6.893085358785186 45.701696635233645 82.7517072121505 H 0.0 **** 0.06
18510 H 6.153250846441608 45.895668992940074 84.35929980063679 H 0.0 **** 0.06
18511 C 98.01778615936988 97.79187470798158 119.68562502896054 C 0.0 **** -0.24
18512 H 97.97740482462025 97.58415944478296 118.61739468711426 H 0.0 **** 0.06
18513 H 98.79958675855211 98.52562653121348 119.88425686971198 H 0.0 **** 0.06
18514 H 98.23751210262566 96.8720173978493 120.22700333958761 H 0.0 **** 0.06
18515 H 97.05733303020061 98.1871421371927 120.01540356041033 H 0.0 **** 0.06
18516 C 27.344138773792764 45.89354988116896 115.27955958572153 C 0.0 **** -0.24
18517 H 27.187016013218113 45.67210430342393 114.22456779084195 H 0.0 **** 0.06
18518 H 27.266874880342073 44.973626574526826 115.85984565165879 H 0.0 **** 0.06
18519 H 26.58685007231685 46.601202429886335 115.61772698696495 H 0.0 **** 0.06
18520 H 28.334012372711044 46.32845755654937 115.41667641377148 H 0.0 **** 0.06
18521 C 46.9341512027171 56.0484933884391 77.5477470400385 C 0.0 **** -0.24
18522 H 45.98884091246808 55.963340025243625 77.01122316907598 H 0.0 **** 0.06
18523 H 47.22533339205284 55.06998592411952 77.92847725309169 H 0.0 **** 0.06
18524 H 46.817468006192335 56.74341869875393 78.37911115521486 H 0.0 **** 0.06
18525 H 47.703090682300065 56.41831540246446 76.86929273986561 H 0.0 **** 0.06
18526 C 81.53000369483664 72.81593344047761 106.28286946784934 C 0.0 **** -0.24
18527 H 80.91356926018614 71.98751451690771 105.93603657099939 H 0.0 **** 0.06
18528 H 81.54033054875521 73.60132837836696 105.52807443806324 H 0.0 **** 0.06
18529 H 82.54692785004727 72.46415329640027 106.45685643689669 H 0.0 **** 0.06
18530 H 81.1181516912884 73.20986203821806 107.2125504416201 H 0.0 **** 0.06
18531 C 31.79415819670075 69.4992656438467 55.063743855605 C 0.0 **** -0.24
18532 H 31.651005558416728 70.49359443531372 54.64041648551853 H 0.0 **** 0.06
18533 H 32.859802260237146 69.27689584831843 55.11542414140759 H 0.0 **** 0.06
18534 H 31.297994930646965 68.76114190020239 54.43433161417835 H 0.0 **** 0.06
18535 H 31.36741732332308 69.46724159001006 56.06639991637434 H 0.0 **** 0.06
18536 C 51.31520121699813 100.76160668766416 21.71986500171178 C 0.0 **** -0.24
18537 H 52.10440243688856 101.23015743003646 22.309205476652295 H 0.0 **** 0.06
18538 H 51.53115405913742 99.6991129542893 21.604089561312975 H 0.0 **** 0.06
18539 H 51.268871308912665 101.23302400323745 20.737439022639563 H 0.0 **** 0.06
18540 H 50.35979986360782 100.88642847024246 22.228610709686535 H 0.0 **** 0.06
18541 C 2.8739688790815308 107.82790035467767 119.43351177441451 C 0.0 **** -0.24
18542 H 2.734984953898504 108.82996951995253 119.02834107046124 H 0.0 **** 0.06
18543 H 3.8667805645940803 107.4627910161158 119.16844449743314 H 0.0 **** 0.06
18544 H 2.118469981521514 107.15972196029512 119.01739923347264 H 0.0 **** 0.06
18545 H 2.7744557608418745 107.85814649039943 120.51823374023314 H 0.0 **** 0.06
18546 C 32.603197679600456 24.00612280826509 115.15228911810732 C 0.0 **** -0.24
18547 H 31.868241285491393 23.248229662338133 114.87931548876367 H 0.0 **** 0.06
18548 H 33.363479359991516 23.55836974643136 115.79339559250545 H 0.0 **** 0.06
18549 H 32.1083798001049 24.816350605383747 115.68690355670086 H 0.0 **** 0.06
18550 H 33.07228182463092 24.39842379261401 114.24988151501759 H 0.0 **** 0.06
18551 C 68.13715510788973 12.565578945119075 28.167078824834277 C 0.0 **** -0.24
18552 H 68.34600653304807 13.325025323844493 27.414715444517142 H 0.0 **** 0.06
18553 H 68.19921024727847 13.010946874884777 29.16036683787891 H 0.0 **** 0.06
18554 H 68.86872865537623 11.761466703961492 28.08469469528734 H 0.0 **** 0.06
18555 H 67.13662098061872 12.163120060004328 28.009996827097893 H 0.0 **** 0.06
18556 C 71.27813825113799 80.03847361783984 124.17889411050595 C 0.0 **** -0.24
18557 H 71.06727930339082 80.79223120404026 124.93794648849871 H 0.0 **** 0.06
18558 H 71.56573117331237 80.53053731524919 123.25020683625166 H 0.0 **** 0.06
18559 H 70.38764897507048 79.43328061480884 124.01078190465466 H 0.0 **** 0.06
18560 H 72.09311962924 79.39945317841429 124.519789603736 H 0.0 **** 0.06
18561 C 95.61079108150261 57.023079786001574 26.950154696830545 C 0.0 **** -0.24
18562 H 96.32893243790897 56.249986320246364 27.22711510420706 H 0.0 **** 0.06
18563 H 95.92530137149367 57.49360654999316 26.018397575674506 H 0.0 **** 0.06
18564 H 95.56262231519338 57.77310664211768 27.739414436908397 H 0.0 **** 0.06
18565 H 94.62690907302647 56.57200037314891 26.8164269966504 H 0.0 **** 0.06
18566 C 66.97820334020429 35.92598343381189 37.291841410665114 C 0.0 **** -0.24
18567 H 67.59256557583308 35.03305260872614 37.40651505318712 H 0.0 **** 0.06
18568 H 66.02936445365685 35.78180684445519 37.808141054913534 H 0.0 **** 0.06
18569 H 66.79212003717518 36.105137898032524 36.23253919059337 H 0.0 **** 0.06
18570 H 67.49909460474586 36.783511654411086 37.718524134415475 H 0.0 **** 0.06
18571 C 72.10399148784808 65.00428446141066 28.541783779662182 C 0.0 **** -0.24
18572 H 73.04152897015928 64.68052629088761 28.99208423490768 H 0.0 **** 0.06
18573 H 71.93649953153937 64.45146424315074 27.616219170718693 H 0.0 **** 0.06
18574 H 72.15439524005481 66.07158352807326 28.32394969000677 H 0.0 **** 0.06
18575 H 71.28346682412479 64.81232404836211 29.232770694185035 H 0.0 **** 0.06
18576 C 26.681981043033716 29.160688100149677 119.94363565584857 C 0.0 **** -0.24
18577 H 25.633888213288863 29.287724325909757 119.67332719333089 H 0.0 **** 0.06
18578 H 26.968955907277838 29.93313730268418 120.65794874691909 H 0.0 **** 0.06
18579 H 27.300006348569866 29.242925912347516 119.05016541440352 H 0.0 **** 0.06
18580 H 26.824050372367132 28.178318132456525 120.3946933623761 H 0.0 **** 0.06
18581 C 117.32949459103864 126.77936346545042 106.64695225449645 C 0.0 **** -0.24
18582 H 116.5824172177156 127.55026365338489 106.45811166965564 H 0.0 **** 0.06
18583 H 117.24731442110114 126.00010584359288 105.88917164304627 H 0.0 **** 0.06
18584 H 117.16218547746958 126.34611889708964 107.63368744864027 H 0.0 **** 0.06
18585 H 118.32521053750577 127.22156145237939 106.60881850256959 H 0.0 **** 0.06
18586 C 43.62820443577351 57.648628361667406 21.7245986293982 C 0.0 **** -0.24
18587 H 44.09797425283219 56.673899417284346 21.594393971384648 H 0.0 **** 0.06
18588 H 43.34954458790722 58.05151479753695 20.750771288358777 H 0.0 **** 0.06
18589 H 44.32891105595667 58.327493979393935 22.211724109301343 H 0.0 **** 0.06
18590 H 42.73703840519687 57.54262785707806 22.342233959176255 H 0.0 **** 0.06
18591 C 56.916663903391964 45.73025973334021 73.30165757160233 C 0.0 **** -0.24
18592 H 56.72842728874912 46.8035271594095 73.34241942598274 H 0.0 **** 0.06
18593 H 55.97309805146779 45.20018733875359 73.1750591297515 H 0.0 **** 0.06
18594 H 57.39292030521335 45.410558148667995 74.22880116098833 H 0.0 **** 0.06
18595 H 57.57414285580876 45.50902591391205 72.45995240780144 H 0.0 **** 0.06
18596 C 130.66882795412243 48.09763215729945 30.67611133896088 C 0.0 **** -0.24
18597 H 130.50754499676006 47.59296482177792 29.723733716048542 H 0.0 **** 0.06
18598 H 129.87772415757394 47.82071165745795 31.372308322693158 H 0.0 **** 0.06
18599 H 130.65738349241877 49.17645757904634 30.521537112884857 H 0.0 **** 0.06
18600 H 131.63450335697803 47.80030430005357 31.084501605279797 H 0.0 **** 0.06
18601 C 63.22361927997193 1.5330918729636096 109.89789234363957 C 0.0 **** -0.24
18602 H 64.22477284194358 1.3731741147366847 109.49785695162637 H 0.0 **** 0.06
18603 H 62.486339740276236 1.3331310926778883 109.1202645112266 H 0.0 **** 0.06
18604 H 63.12745640552728 2.564788963314527 110.23381673223923 H 0.0 **** 0.06
18605 H 63.05755509764222 0.8590273354450346 110.73851603081988 H 0.0 **** 0.06
18606 C 120.64715061152623 19.926283783372924 22.903966633835807 C 0.0 **** -0.24
18607 H 121.60123789335395 20.43454424391453 23.041375507006762 H 0.0 **** 0.06
18608 H 120.75335913811739 19.156333406948818 22.137815340939795 H 0.0 **** 0.06
18609 H 119.89287283210686 20.648029644660824 22.591780201333307 H 0.0 **** 0.06
18610 H 120.34271530691879 19.4649065432818 23.842716112897676 H 0.0 **** 0.06
18611 C 28.72886613626258 118.6550199960804 90.64619958589081 C 0.0 **** -0.24
18612 H 28.94647053773548 119.04679751445977 91.64022283317267 H 0.0 **** 0.06
18613 H 28.570081767792885 119.48482571252194 89.95689666760666 H 0.0 **** 0.06
18614 H 27.8317256357401 118.03837577270434 90.68705567215615 H 0.0 **** 0.06
18615 H 29.569398984982058 118.05150519049928 90.30206452784388 H 0.0 **** 0.06
18616 C 106.4750255227094 125.43696269101963 29.016972017695736 C 0.0 **** -0.24
18617 H 106.17208719955077 124.70969506672986 28.263591865230268 H 0.0 **** 0.06
18618 H 106.80701724825796 124.9125156966835 29.91342299676316 H 0.0 **** 0.06
18619 H 105.63015954591124 126.07963671072545 29.26238390965858 H 0.0 **** 0.06
18620 H 107.29245355032211 126.04411424667956 28.6268093199497 H 0.0 **** 0.06
18621 C 43.765615600238476 43.80388195672617 10.061543859133707 C 0.0 **** -0.24
18622 H 42.91437594261612 43.400752147352534 9.511927690186582 H 0.0 **** 0.06
18623 H 43.46778834586647 44.72025078481488 10.57125218215026 H 0.0 **** 0.06
18624 H 44.577034661782534 44.020396239221725 9.367298877661 H 0.0 **** 0.06
18625 H 44.10176811404307 43.07212139681644 10.797350586283784 H 0.0 **** 0.06
18626 C 78.10677551104985 88.0777565855978 76.95114569997301 C 0.0 **** -0.24
18627 H 79.04435318143912 87.56399990906209 76.73833905267252 H 0.0 **** 0.06
18628 H 78.20003030105221 88.63021126954294 77.88539018530697 H 0.0 **** 0.06
18629 H 77.30367308944734 87.34531070966818 77.03967295679205 H 0.0 **** 0.06
18630 H 77.88006247507086 88.76896735476373 76.13994394199092 H 0.0 **** 0.06
18631 C 78.81384571604895 94.17314967858721 104.80443060277082 C 0.0 **** -0.24
18632 H 79.50394339604924 94.97571120521593 105.06685720109556 H 0.0 **** 0.06
18633 H 78.07783461814981 94.05295569673586 105.60020545388397 H 0.0 **** 0.06
18634 H 79.36822223990309 93.24436199533528 104.67752328997784 H 0.0 **** 0.06
18635 H 78.30513099855116 94.42313625769788 103.87360328532037 H 0.0 **** 0.06
18636 C 5.1660073975806995 44.67718111728041 73.30942278308154 C 0.0 **** -0.24
18637 H 5.51599772575895 43.65487858476045 73.16712816848136 H 0.0 **** 0.06
18638 H 4.134834345684851 44.75950550000658 72.96536999189357 H 0.0 **** 0.06
18639 H 5.796436248344548 45.35913916279739 72.73785282296666 H 0.0 **** 0.06
18640 H 5.218992508767087 44.93530133976229 74.3672313738077 H 0.0 **** 0.06
18641 C 40.98576552740991 19.50413351145238 121.11152584846954 C 0.0 **** -0.24
18642 H 40.527979241647216 18.735970471047537 121.73436908729062 H 0.0 **** 0.06
18643 H 41.785093692105676 19.06023687030506 120.51686476006586 H 0.0 **** 0.06
18644 H 41.397723406603276 20.289252187258256 121.74538295282386 H 0.0 **** 0.06
18645 H 40.23313997863656 19.929625379888307 120.4477156914536 H 0.0 **** 0.06
18646 C 83.01817892049539 17.858157340871237 49.06491550261072 C 0.0 **** -0.24
18647 H 82.52916994591385 18.479335925915144 49.81597669379988 H 0.0 **** 0.06
18648 H 83.93122279773556 17.434281663718885 49.483608453773485 H 0.0 **** 0.06
18649 H 83.26521809190712 18.466755402869715 48.19515432545168 H 0.0 **** 0.06
18650 H 82.34703282174749 17.053597942920078 48.766710071172525 H 0.0 **** 0.06
18651 C 113.91584005649806 90.98257732074087 27.801824109391532 C 0.0 **** -0.24
18652 H 113.34445807973314 91.8925642357698 27.61896647490954 H 0.0 **** 0.06
18653 H 113.2411225079223 90.18826302396137 28.122904414969867 H 0.0 **** 0.06
18654 H 114.6557852733035 91.16817936334097 28.579785790060782 H 0.0 **** 0.06
18655 H 114.4217240750332 90.68100552545695 26.88428374643769 H 0.0 **** 0.06
18656 C 46.314970198219 53.58043959510299 74.08123754641241 C 0.0 **** -0.24
18657 H 46.52327767668187 53.91357267410291 75.09774715830514 H 0.0 **** 0.06
18658 H 46.10411198678506 54.44472037980201 73.4514359832495 H 0.0 **** 0.06
18659 H 45.451847867895864 52.914907643351924 74.08685225096718 H 0.0 **** 0.06
18660 H 47.182461311526 53.0474848408808 73.68965234539934 H 0.0 **** 0.06
18661 C 84.71238903873666 114.25523549374161 31.051471758873276 C 0.0 **** -0.24
18662 H 84.09727669432343 114.42887905492726 30.1678172690168 H 0.0 **** 0.06
18663 H 84.3285926449521 114.84847528446907 31.8826940298555 H 0.0 **** 0.06
18664 H 85.74073547813285 114.5462015882663 30.8411655391375 H 0.0 **** 0.06
18665 H 84.67992415050415 113.1975981315395 31.31332041187448 H 0.0 **** 0.06
18666 C 32.27180300232618 97.22053144235082 120.81222506832583 C 0.0 **** -0.24
18667 H 32.37355363122521 96.8146927335835 121.81927932901024 H 0.0 **** 0.06
18668 H 31.21528659160657 97.278719857553 120.5497299730765 H 0.0 **** 0.06
18669 H 32.786663905149055 96.56907758131852 120.10594566281912 H 0.0 **** 0.06
18670 H 32.71198273675736 98.21683649262428 120.7764131521451 H 0.0 **** 0.06
18671 C 58.436887695921186 93.15656692237388 115.50526233714032 C 0.0 **** -0.24
18672 H 57.4000120995497 92.82137405997042 115.53618530824532 H 0.0 **** 0.06
18673 H 58.692176984895085 93.4517258232147 114.48716110834802 H 0.0 **** 0.06
18674 H 59.09009378671131 92.34373587673139 115.82344623433745 H 0.0 **** 0.06
18675 H 58.56382403966441 94.00753367833306 116.17369794092673 H 0.0 **** 0.06
18676 C 120.56299449336987 130.07867693250614 118.79834297034 C 0.0 **** -0.24
18677 H 121.11037452117677 130.22054484470868 117.86648672038737 H 0.0 **** 0.06
18678 H 120.00735637847504 130.98577993992427 119.0353363633418 H 0.0 **** 0.06
18679 H 121.26683133916376 129.86250844862934 119.60244332710026 H 0.0 **** 0.06
18680 H 119.86993419317702 129.24447668110304 118.68826643439111 H 0.0 **** 0.06
18681 C 74.82020822103942 113.0404516458597 55.025203564712996 C 0.0 **** -0.24
18682 H 74.74247688225898 112.13594546095499 55.62910663075269 H 0.0 **** 0.06
18683 H 75.44076039198484 113.77124841049316 55.54394971616264 H 0.0 **** 0.06
18684 H 73.82547539465298 113.45534498449202 54.86468704916787 H 0.0 **** 0.06
18685 H 75.27206418588528 112.79649039982037 54.06360355336248 H 0.0 **** 0.06
18686 C 49.36382827517167 123.23158957344252 101.82453702632387 C 0.0 **** -0.24
18687 H 50.255443662060856 123.1583557471056 102.44699607001428 H 0.0 **** 0.06
18688 H 49.35793835253796 122.41449989353364 101.10211172536242 H 0.0 **** 0.06
18689 H 49.366717115139494 124.18431323663654 101.29539647577695 H 0.0 **** 0.06
18690 H 48.47549033149386 123.16680341340741 102.45316326176078 H 0.0 **** 0.06
18691 C 5.752978066658841 17.184428532842333 93.59699310952985 C 0.0 **** -0.24
18692 H 6.820465048982328 16.982501270312028 93.68424780831967 H 0.0 **** 0.06
18693 H 5.384292965250722 16.78545725874828 92.65186629097677 H 0.0 **** 0.06
18694 H 5.583613024959334 18.260506295320035 93.62798621591726 H 0.0 **** 0.06
18695 H 5.224904849092297 16.709493842756338 94.42415646452187 H 0.0 **** 0.06
18696 C 49.84280686934312 67.40009916005823 123.70738182875468 C 0.0 **** -0.24
18697 H 50.57942964644269 68.19691033340075 123.8104221604681 H 0.0 **** 0.06
18698 H 49.87537490899362 67.00588280846114 122.69105691405044 H 0.0 **** 0.06
18699 H 48.84827867847508 67.7953879706476 123.9122277675165 H 0.0 **** 0.06
18700 H 50.07015034682897 66.60230055293488 124.41483629833652 H 0.0 **** 0.06
18701 C 116.52929077155363 54.53612182314083 127.95772124784699 C 0.0 **** -0.24
18702 H 115.89633204656123 53.868759905286126 128.54260310968914 H 0.0 **** 0.06
18703 H 116.18501766561481 54.547916239558916 126.92288383501847 H 0.0 **** 0.06
18704 H 117.55984397386338 54.183749642458395 127.99383744945767 H 0.0 **** 0.06
18705 H 116.47404794847235 55.543491319840456 128.37015231896999 H 0.0 **** 0.06
18706 C 20.816211386782754 69.20457261616328 21.91018108699734 C 0.0 **** -0.24
18707 H 20.42488872871337 68.19530653314462 22.03679468301857 H 0.0 **** 0.06
18708 H 21.206541679053373 69.31871730777691 20.898909748834285 H 0.0 **** 0.06
18709 H 21.615874264198226 69.37600120139834 22.63076070871591 H 0.0 **** 0.06
18710 H 20.016439856061027 69.92692219420817 22.075251033479816 H 0.0 **** 0.06
18711 C 18.1923528927709 71.52530834966655 80.40095238192049 C 0.0 **** -0.24
18712 H 17.30909580718466 71.14587052359573 79.88539110697909 H 0.0 **** 0.06
18713 H 17.95246615289137 71.701293169943 81.45015552437971 H 0.0 **** 0.06
18714 H 18.509452427064502 72.4591304486992 79.93816996401208 H 0.0 **** 0.06
18715 H 18.99598982470191 70.79247159249229 80.32975245092626 H 0.0 **** 0.06
18716 C 24.446907425416043 98.66567112929278 75.54870608440497 C 0.0 **** -0.24
18717 H 23.414285795143257 98.32540168559738 75.63557282059871 H 0.0 **** 0.06
18718 H 25.03331359362187 98.25987604899963 76.37411854250234 H 0.0 **** 0.06
18719 H 24.474460202346165 99.7544603711914 75.58251820604062 H 0.0 **** 0.06
18720 H 24.863152492899815 98.3201741906365 74.6019286924553 H 0.0 **** 0.06
18721 C 128.14792549017935 87.7642692614996 84.88621794954275 C 0.0 **** -0.24
18722 H 128.804776072505 88.63313986602496 84.85474392390637 H 0.0 **** 0.06
18723 H 128.66206068838792 86.93847564872964 85.37949217339656 H 0.0 **** 0.06
18724 H 127.88287272346045 87.47266547588407 83.8700817791252 H 0.0 **** 0.06
18725 H 127.24399292074949 88.01267323466135 85.44154559562116 H 0.0 **** 0.06
18726 C 3.9942301691176283 37.57021055701037 98.66239171250132 C 0.0 **** -0.24
18727 H 4.781483866923338 38.32351967067905 98.63119122237563 H 0.0 **** 0.06
18728 H 3.677415004487756 37.41857526406838 99.69458665416445 H 0.0 **** 0.06
18729 H 4.372283627012564 36.632458647709285 98.2570803210107 H 0.0 **** 0.06
18730 H 3.1447953035074647 37.90788974315083 98.06795274004523 H 0.0 **** 0.06
18731 C 6.328054995479668 128.046694850868 15.850573548585743 C 0.0 **** -0.24
18732 H 5.4664614587331535 127.81580458358243 15.223769946297452 H 0.0 **** 0.06
18733 H 5.985102669615433 128.40944882574826 16.819276132949454 H 0.0 **** 0.06
18734 H 6.933041754920946 128.81423299451842 15.367888673197683 H 0.0 **** 0.06
18735 H 6.927043714202373 127.14668508655627 15.990807029701273 H 0.0 **** 0.06
18736 C 110.8867705882835 39.27318938011328 92.3309578783964 C 0.0 **** -0.24
18737 H 111.34190195644844 39.362987020834225 93.31714613263006 H 0.0 **** 0.06
18738 H 111.21895886008642 38.348292979271946 91.86048894779266 H 0.0 **** 0.06
18739 H 111.18325068390234 40.12165756718494 91.71513022493036 H 0.0 **** 0.06
18740 H 109.80150253919037 39.26009222021176 92.43300792443114 H 0.0 **** 0.06
18741 C 21.947893054744867 122.11118381511528 60.24951684320142 C 0.0 **** -0.24
18742 H 21.48463384294064 121.51611980768456 61.036817436727446 H 0.0 **** 0.06
18743 H 21.25239343313561 122.88389853857518 59.92132829183693 H 0.0 **** 0.06
18744 H 22.19948339524518 121.46625525594766 59.40787089888249 H 0.0 **** 0.06
18745 H 22.854919130002685 122.57809655462859 60.633409615644396 H 0.0 **** 0.06
18746 C 106.31761811898603 90.9875094319489 86.11585858503064 C 0.0 **** -0.24
18747 H 106.33130720119735 89.99890936117893 86.57419683366601 H 0.0 **** 0.06
18748 H 105.41475822367522 91.09669566682447 85.5152382144657 H 0.0 **** 0.06
18749 H 107.19520494146937 91.1045563893052 85.47925045923316 H 0.0 **** 0.06
18750 H 106.330078644148 91.75034914732244 86.89483921232487 H 0.0 **** 0.06
18751 C 93.88191300329851 91.21467698348764 12.498725238949731 C 0.0 **** -0.24
18752 H 94.65284009293272 90.44731776699828 12.560366633658887 H 0.0 **** 0.06
18753 H 93.75540728765688 91.51965989289113 11.459894067226116 H 0.0 **** 0.06
18754 H 94.17810498808869 92.0753458456638 13.09773261957794 H 0.0 **** 0.06
18755 H 92.94071356113288 90.81476456224554 12.87672678245147 H 0.0 **** 0.06
18756 C 49.81447470176825 58.22932620946216 113.44895903796011 C 0.0 **** -0.24
18757 H 50.60993341348242 57.75542584417036 114.02473364086218 H 0.0 **** 0.06
18758 H 49.09619968035783 57.472630458062895 113.13112561822739 H 0.0 **** 0.06
18759 H 50.24243540773628 58.71557663877451 112.57148385032325 H 0.0 **** 0.06
18760 H 49.31068055897953 58.9714058737041 114.06706389645304 H 0.0 **** 0.06
18761 C 126.06296575871806 4.27927355729048 38.90560073314174 C 0.0 **** -0.24
18762 H 126.79989307008589 5.072491583831422 38.78468464139442 H 0.0 **** 0.06
18763 H 126.53761402108188 3.408579584110015 39.35957053306532 H 0.0 **** 0.06
18764 H 125.65892578339475 4.006037397589637 37.93065397192497 H 0.0 **** 0.06
18765 H 125.25493634663212 4.629205805415452 39.54856527165302 H 0.0 **** 0.06
18766 C 47.06204789754389 14.796838131734575 20.62184772705467 C 0.0 **** -0.24
18767 H 46.873056600959984 14.628082478480763 21.682557091578083 H 0.0 **** 0.06
18768 H 48.13210779470144 14.716537334847061 20.42712962239313 H 0.0 **** 0.06
18769 H 46.71477387489789 15.791834319829434 20.34505401363181 H 0.0 **** 0.06
18770 H 46.52848173577277 14.048595307866464 20.03541502214251 H 0.0 **** 0.06
18771 C 33.05075739168839 91.84952684559352 39.092975458798904 C 0.0 **** -0.24
18772 H 32.41245252874029 91.98240194133325 39.96567042339973 H 0.0 **** 0.06
18773 H 32.44453936663885 91.90530191974068 38.18768300203004 H 0.0 **** 0.06
18774 H 33.538414069952495 90.87587153045885 39.144334787373566 H 0.0 **** 0.06
18775 H 33.80672300650701 92.63389443490027 39.07287847480907 H 0.0 **** 0.06
18776 C 83.48977785368595 32.07946516902717 83.58849507401348 C 0.0 **** -0.24
18777 H 84.17468463338798 32.886309772723564 83.33060580643549 H 0.0 **** 0.06
18778 H 83.7658204015359 31.66496896198464 84.5586615230469 H 0.0 **** 0.06
18779 H 83.54636368291949 31.29849036777125 82.83044438014556 H 0.0 **** 0.06
18780 H 82.47197014318374 32.46691517492974 83.63551034663597 H 0.0 **** 0.06
18781 C 97.25836994813397 89.94174706356941 85.62825631072606 C 0.0 **** -0.24
18782 H 97.6911407849771 90.90124377629743 85.34602253973567 H 0.0 **** 0.06
18783 H 96.17920945780533 89.97080701974431 85.47215467826423 H 0.0 **** 0.06
18784 H 97.46821156317051 89.74445473542158 86.67999475727831 H 0.0 **** 0.06
18785 H 97.69305707175396 89.15169543692977 85.01660448664873 H 0.0 **** 0.06
18786 C 27.638137584156368 9.074576666063365 37.59317025732952 C 0.0 **** -0.24
18787 H 28.060799105588387 8.113099544998988 37.29908772558923 H 0.0 **** 0.06
18788 H 28.40827729598459 9.843802923376131 37.53200421380325 H 0.0 **** 0.06
18789 H 27.267944272497914 9.010605834388912 38.616672649783425 H 0.0 **** 0.06
18790 H 26.815146254518936 9.328385024225838 36.92508713644065 H 0.0 **** 0.06
18791 C 126.51925593341205 26.351781886689253 125.90428785956905 C 0.0 **** -0.24
18792 H 125.75583945872059 26.503182175146833 125.14100500173433 H 0.0 **** 0.06
18793 H 126.05215594837021 25.9788729016218 126.81564780311696 H 0.0 **** 0.06
18794 H 127.01855451664247 27.298385339100463 126.11192051306044 H 0.0 **** 0.06
18795 H 127.24966891310237 25.625712947582258 125.54673329306812 H 0.0 **** 0.06
18796 C 80.32332551211553 68.09342892042363 22.623282178416332 C 0.0 **** -0.24
18797 H 80.16362129768517 69.16037486046773 22.469284236400938 H 0.0 **** 0.06
18798 H 80.94717868865854 67.70033799288727 21.81992966449593 H 0.0 **** 0.06
18799 H 79.36270336105551 67.57823655142018 22.62390020259096 H 0.0 **** 0.06
18800 H 80.82081933431972 67.93563181688245 23.580472059875035 H 0.0 **** 0.06
18801 C 83.87428901934274 38.43230004137877 30.96265816049717 C 0.0 **** -0.24
18802 H 83.55624551074487 37.43156543049025 31.254205768870328 H 0.0 **** 0.06
18803 H 84.16445131559473 38.99523078995918 31.85047309099494 H 0.0 **** 0.06
18804 H 83.0521633664161 38.9428902773339 30.460793127361754 H 0.0 **** 0.06
18805 H 84.7247580571707 38.35979867016846 30.28432087735728 H 0.0 **** 0.06
18806 C 15.375857645783043 50.90710329400906 26.355723617295325 C 0.0 **** -0.24
18807 H 16.18183171034687 51.64111234471176 26.374512569922842 H 0.0 **** 0.06
18808 H 14.62222390339798 51.177480504662554 27.0964157968869 H 0.0 **** 0.06
18809 H 15.777221360751724 49.92053357669798 26.589062155037652 H 0.0 **** 0.06
18810 H 14.92231444410649 50.88957255302232 25.365331453102613 H 0.0 **** 0.06
18811 C 93.25936400220198 34.560490395587976 51.99107108103432 C 0.0 **** -0.24
18812 H 93.89372487437325 34.1560694418381 51.203088608105546 H 0.0 **** 0.06
18813 H 92.71721567224628 35.427599870931346 51.612642928534115 H 0.0 **** 0.06
18814 H 93.87747084527373 34.8580685235149 52.838305803818116 H 0.0 **** 0.06
18815 H 92.5483106266899 33.79776846441467 52.31144418790164 H 0.0 **** 0.06
18816 C 79.23028486969775 19.302735552098966 12.839928179275503 C 0.0 **** -0.24
18817 H 79.56554176228809 19.880884681250933 11.979526642030876 H 0.0 **** 0.06
18818 H 78.83227892739103 18.345528788533983 12.501805419839997 H 0.0 **** 0.06
18819 H 78.45208932411572 19.85399911798308 13.366788298446195 H 0.0 **** 0.06
18820 H 80.07122946499629 19.13052962062764 13.511592356785101 H 0.0 **** 0.06
18821 C 42.37698969371627 81.43913883565241 55.65835967209745 C 0.0 **** -0.24
18822 H 42.45439533992514 82.45404750027012 56.05091202710702 H 0.0 **** 0.06
18823 H 42.62202346459163 80.72653480642154 56.446330771964256 H 0.0 **** 0.06
18824 H 43.07208977076082 81.31765951883025 54.8276592919803 H 0.0 **** 0.06
18825 H 41.358784607039006 81.26177746448997 55.31067178025563 H 0.0 **** 0.06
18826 C 58.98577112071473 123.71294541266758 129.59899926628822 C 0.0 **** -0.24
18827 H 58.270768235828086 124.36005831242267 129.0914490612498 H 0.0 **** 0.06
18828 H 59.705229130120244 124.32432042538989 130.14458912154788 H 0.0 **** 0.06
18829 H 59.51075598138698 123.10370623025199 128.86263452286923 H 0.0 **** 0.06
18830 H 58.457081350891485 123.06416814255232 130.29686072345453 H 0.0 **** 0.06
18831 C 116.55733842797383 89.38534064744437 88.95271444144144 C 0.0 **** -0.24
18832 H 117.33654497538919 89.14013502440532 89.6747745910894 H 0.0 **** 0.06
18833 H 115.90537159795224 88.52267077520642 88.81455718523375 H 0.0 **** 0.06
18834 H 117.01490232489442 89.65218344255881 88.00028877547366 H 0.0 **** 0.06
18835 H 115.97166233528941 90.22791277680761 89.32344388268534 H 0.0 **** 0.06
18836 C 49.17180723545087 77.8263245612421 53.82359677253217 C 0.0 **** -0.24
18837 H 48.60925923380455 78.4252562969719 53.10756536329875 H 0.0 **** 0.06
18838 H 49.30023883468468 76.81786607691467 53.42988964667228 H 0.0 **** 0.06
18839 H 48.6262245647587 77.7819711816895 54.76696726137844 H 0.0 **** 0.06
18840 H 50.1486950227916 78.27963165632806 53.98908800123698 H 0.0 **** 0.06
18841 C 107.34287145851042 11.487829170933395 116.27162841309564 C 0.0 **** -0.24
18842 H 107.39562376694964 11.84842433749543 115.2437598135735 H 0.0 **** 0.06
18843 H 108.04942069347189 12.043858717272968 116.88821970214244 H 0.0 **** 0.06
18844 H 107.59389630627027 10.427175714001521 116.29625092107999 H 0.0 **** 0.06
18845 H 106.33287456327838 11.630976842149451 116.65466162388971 H 0.0 **** 0.06
18846 C 120.42856613173797 10.055173120264158 39.36573288084651 C 0.0 **** -0.24
18847 H 120.18589997697816 9.171662206065491 39.95582867686742 H 0.0 **** 0.06
18848 H 120.6631156468977 10.884668777875277 40.03348133409937 H 0.0 **** 0.06
18849 H 119.57408750791853 10.32059611639562 38.74310346257954 H 0.0 **** 0.06
18850 H 121.28844427386352 9.843735516855702 38.731789609341796 H 0.0 **** 0.06
18851 C 99.2654149899331 53.23408796176557 34.10917677336718 C 0.0 **** -0.24
18852 H 99.3146562636864 52.699437878443575 33.1612627566636 H 0.0 **** 0.06
18853 H 98.47142834260137 53.98019838695075 34.064803800027576 H 0.0 **** 0.06
18854 H 100.21849136143089 53.728225480174444 34.29662006604756 H 0.0 **** 0.06
18855 H 99.05802569778325 52.52851526026717 34.91368489178377 H 0.0 **** 0.06
18856 C 16.70534849807808 50.8624609495628 55.25716137437249 C 0.0 **** -0.24
18857 H 16.640809942300848 50.099240809590356 56.033860392487526 H 0.0 **** 0.06
18858 H 16.649381263154453 51.851080309923105 55.71496811268716 H 0.0 **** 0.06
18859 H 15.879805427316853 50.738268555377516 54.55643864098701 H 0.0 **** 0.06
18860 H 17.65148004698466 50.75994927165712 54.72658634076228 H 0.0 **** 0.06
18861 C 29.025240882177457 35.97544285880713 84.84785230947368 C 0.0 **** -0.24
18862 H 29.847755328567928 36.69028329871722 84.89876118289703 H 0.0 **** 0.06
18863 H 29.04370905368279 35.33925044439107 85.73268144701898 H 0.0 **** 0.06
18864 H 29.1346620961491 35.36006646668878 83.95439866804938 H 0.0 **** 0.06
18865 H 28.07860474401275 36.51356778740427 84.80464325081765 H 0.0 **** 0.06
18866 C 128.19257011849896 85.79821284942243 44.714591789452584 C 0.0 **** -0.24
18867 H 128.9285688920143 85.30947800564333 45.352500476395875 H 0.0 **** 0.06
18868 H 128.2423982955333 86.87760806006013 44.862452117059746 H 0.0 **** 0.06
18869 H 127.19498255767598 85.44187315059388 44.9712404656309 H 0.0 **** 0.06
18870 H 128.40467481471154 85.56425843485411 43.670852139887046 H 0.0 **** 0.06
18871 C 13.591434753543837 50.79049992372154 20.417883619652628 C 0.0 **** -0.24
18872 H 12.905969357450886 51.426229965986764 20.9784966635263 H 0.0 **** 0.06
18873 H 13.998591305551571 50.024489848207935 21.078762310105276 H 0.0 **** 0.06
18874 H 14.404798079838969 51.39692068981739 20.019388420624693 H 0.0 **** 0.06
18875 H 13.055948775372201 50.31520655302502 19.59633482620552 H 0.0 **** 0.06
18876 C 40.27396338434096 116.3736940090485 87.64108086707621 C 0.0 **** -0.24
18877 H 41.33412403289941 116.15039324991227 87.76480110093223 H 0.0 **** 0.06
18878 H 39.684558807639746 115.66329442803169 88.2207006955346 H 0.0 **** 0.06
18879 H 40.00698697725312 116.29389335071318 86.58697842407153 H 0.0 **** 0.06
18880 H 40.07349010690649 117.38582973732989 87.99139095649672 H 0.0 **** 0.06
18881 C 67.535027369023 128.15927790275072 97.70068164615225 C 0.0 **** -0.24
18882 H 68.31385667840073 128.10744422481798 96.93948477359709 H 0.0 **** 0.06
18883 H 67.64423986148711 127.32170565280623 98.38943182735125 H 0.0 **** 0.06
18884 H 66.55652185841353 128.1133060510857 97.22368587178232 H 0.0 **** 0.06
18885 H 67.62711857855766 129.0961855267642 98.25022945366854 H 0.0 **** 0.06
18886 C 51.621793806589366 7.865661438116035 34.52948391791412 C 0.0 **** -0.24
18887 H 52.430184302299665 7.140110297420165 34.43959614027773 H 0.0 **** 0.06
18888 H 51.536844122322464 8.430487391734118 33.60031937585401 H 0.0 **** 0.06
18889 H 51.836794077919876 8.548994538833767 35.351133013439494 H 0.0 **** 0.06
18890 H 50.685292703581 7.344498913055645 34.72511292848358 H 0.0 **** 0.06
18891 C 45.32201156262013 55.41786566540374 123.92136108333801 C 0.0 **** -0.24
18892 H 44.64429563094225 54.63347161315501 124.25827435902468 H 0.0 **** 0.06
18893 H 46.20128428595447 55.43788940115674 124.56587876629727 H 0.0 **** 0.06
18894 H 44.81498419425813 56.3809031826533 123.96823730492557 H 0.0 **** 0.06
18895 H 45.628736050209824 55.217189593780276 122.89514978115827 H 0.0 **** 0.06
18896 C 71.51901933679108 126.31960383824634 1.4108349083674625 C 0.0 **** -0.24
18897 H 70.91912818242213 125.42379679395106 1.5743948890653883 H 0.0 **** 0.06
18898 H 71.81574167266817 126.37097793422299 0.3631168910773681 H 0.0 **** 0.06
18899 H 72.40847697058032 126.28062772298682 2.0386934754790786 H 0.0 **** 0.06
18900 H 70.93203928403645 127.20207318492083 1.665854029939851 H 0.0 **** 0.06
18901 C 8.920183192983501 123.9705770078885 21.63660110567406 C 0.0 **** -0.24
18902 H 9.950821347504757 124.19406737580444 21.361115140669057 H 0.0 **** 0.06
18903 H 8.342724641571209 124.8948931440238 21.661132500313748 H 0.0 **** 0.06
18904 H 8.901116308940175 123.50188456677692 22.620824837594945 H 0.0 **** 0.06
18905 H 8.486906507682278 123.29077692569786 20.901978950038767 H 0.0 **** 0.06
18906 C 129.56406033493806 87.66222057991047 114.01247455601946 C 0.0 **** -0.24
18907 H 129.4392506218445 88.56980469397303 114.6044155744981 H 0.0 **** 0.06
18908 H 130.4793993007815 87.73546933174725 113.42502525685954 H 0.0 **** 0.06
18909 H 128.7114124248701 87.54423462526287 113.34441521962948 H 0.0 **** 0.06
18910 H 129.6274583454395 86.80146672286918 114.67868472996669 H 0.0 **** 0.06
18911 C 66.27290300505433 35.69266003176313 105.38219746362674 C 0.0 **** -0.24
18912 H 65.29435265020628 36.15015714832563 105.22903028263099 H 0.0 **** 0.06
18913 H 66.31285407742448 34.73713631485661 104.8593353378939 H 0.0 **** 0.06
18914 H 66.43523225814 35.53169589848011 106.44773357491752 H 0.0 **** 0.06
18915 H 67.04705495250143 36.35323144235166 104.99168287098652 H 0.0 **** 0.06
18916 C 17.811820913374405 59.96688749251466 51.38678724893981 C 0.0 **** -0.24
18917 H 17.24862529437577 60.39339374144208 52.217371159425255 H 0.0 **** 0.06
18918 H 18.36617208827205 59.094921213863856 51.73409843792791 H 0.0 **** 0.06
18919 H 18.50880744488896 60.71051405606043 51.000329256999635 H 0.0 **** 0.06
18920 H 17.122829962904184 59.668984193070756 50.59645025552362 H 0.0 **** 0.06
18921 C 73.61815747949652 120.40370037659932 17.46890886774628 C 0.0 **** -0.24
18922 H 72.6362415798842 120.38475737085778 17.94197314429107 H 0.0 **** 0.06
18923 H 73.67938978685797 121.25773134538056 16.79474631228193 H 0.0 **** 0.06
18924 H 73.76629965211546 119.48292476100775 16.905600270745865 H 0.0 **** 0.06
18925 H 74.38860287034075 120.48898602569196 18.23542419335277 H 0.0 **** 0.06
18926 C 65.84609776832133 89.51031854308115 125.82751081110041 C 0.0 **** -0.24
18927 H 66.51290765415948 90.37218444202665 125.81253770268307 H 0.0 **** 0.06
18928 H 66.40723152147118 88.61250627022844 125.56850598699594 H 0.0 **** 0.06
18929 H 65.04357925182939 89.65898514218333 125.10491911976669 H 0.0 **** 0.06
18930 H 65.42043119618072 89.39765922761126 126.82504896374951 H 0.0 **** 0.06
18931 C 87.81363244470155 26.79007123574455 103.65812880006652 C 0.0 **** -0.24
18932 H 87.4909066826487 25.758882228952075 103.51054543208718 H 0.0 **** 0.06
18933 H 88.53673754564741 27.05739038001468 102.88769583943113 H 0.0 **** 0.06
18934 H 88.27557896233583 26.8881829100105 104.64063376033957 H 0.0 **** 0.06
18935 H 86.95170809120839 27.45350548613183 103.59430231928806 H 0.0 **** 0.06
18936 C 24.07455834232809 61.81126827904569 98.18530289039404 C 0.0 **** -0.24
18937 H 23.22497727016838 61.23457771100715 98.55253922149012 H 0.0 **** 0.06
18938 H 23.72810015496043 62.53739663004649 97.44947420953903 H 0.0 **** 0.06
18939 H 24.79575973397914 61.13802783761474 97.72146956470522 H 0.0 **** 0.06
18940 H 24.546846159450013 62.332632315924826 99.01698620930313 H 0.0 **** 0.06
18941 C 42.410444384718915 99.23374051816376 53.54045572760177 C 0.0 **** -0.24
18942 H 43.41775599342853 99.53221533874691 53.83201466068883 H 0.0 **** 0.06
18943 H 41.79667313168645 100.1225870588816 53.394160993651354 H 0.0 **** 0.06
18944 H 41.97374993409326 98.61634487545487 54.325457668420114 H 0.0 **** 0.06
18945 H 42.45531109795846 98.66495630796518 52.612790455313274 H 0.0 **** 0.06
18946 C 11.54612119617039 75.94471719145866 124.2600782767895 C 0.0 **** -0.24
18947 H 12.217800097221868 75.14276906011185 124.56521443954864 H 0.0 **** 0.06
18948 H 11.204331226597304 75.76430974962636 123.24028942103394 H 0.0 **** 0.06
18949 H 12.074021161391727 76.89724346787978 124.30379071799865 H 0.0 **** 0.06
18950 H 10.687859201761341 75.9747334764943 124.93187949889601 H 0.0 **** 0.06
18951 C 110.12750324379127 86.66206208246064 61.256497283790495 C 0.0 **** -0.24
18952 H 110.51368458252776 86.96800356730972 62.22837083769815 H 0.0 **** 0.06
18953 H 109.18469179002435 87.17285762402577 61.06313519802278 H 0.0 **** 0.06
18954 H 109.96410608961978 85.5842956236786 61.2544212030634 H 0.0 **** 0.06
18955 H 110.84852523000112 86.92187500761179 60.480790467660114 H 0.0 **** 0.06
18956 C 6.16631423563598 118.35713038966384 61.076585724580156 C 0.0 **** -0.24
18957 H 5.087437496415504 118.45266685939579 61.20241608966356 H 0.0 **** 0.06
18958 H 6.378199125793344 117.8433703189888 60.13872279687621 H 0.0 **** 0.06
18959 H 6.578648079013703 117.78363186993025 61.906308375560485 H 0.0 **** 0.06
18960 H 6.6187334070599775 119.34799302607948 61.059394879297315 H 0.0 **** 0.06
18961 C 14.686685075914028 26.12697796969141 52.062556503040526 C 0.0 **** -0.24
18962 H 13.670261738358917 26.374103648651555 52.3714335832629 H 0.0 **** 0.06
18963 H 14.691514592276945 25.86941274574177 51.00286203353505 H 0.0 **** 0.06
18964 H 15.047211544141888 25.280510935116524 52.64582455082615 H 0.0 **** 0.06
18965 H 15.335888620624573 26.987124352931147 52.23028098513299 H 0.0 **** 0.06
18966 C 23.723336426028283 83.8936168073849 80.10275373795753 C 0.0 **** -0.24
18967 H 23.77228261040844 83.95676136289397 79.01594672937517 H 0.0 **** 0.06
18968 H 23.06758913093745 84.67830334635777 80.48214809519845 H 0.0 **** 0.06
18969 H 24.72213412140647 84.02113217082152 80.51975547126722 H 0.0 **** 0.06
18970 H 23.329238755022033 82.9190088619737 80.39296386948581 H 0.0 **** 0.06
18971 C 89.0781982479681 69.24225358726778 7.847823919827334 C 0.0 **** -0.24
18972 H 88.6952850047996 70.01806845779039 7.183987896889462 H 0.0 **** 0.06
18973 H 88.38404333040356 69.09893092283745 8.67665870689936 H 0.0 **** 0.06
18974 H 90.05104291342874 69.54321108178463 8.23521681543852 H 0.0 **** 0.06
18975 H 89.17943899898206 68.3096993963907 7.293615112221346 H 0.0 **** 0.06
18976 C 16.351709917788554 69.47178513821797 1.5252155374257228 C 0.0 **** -0.24
18977 H 17.047401653982405 69.36546986076576 0.6935536618871225 H 0.0 **** 0.06
18978 H 15.463344667230558 68.86823094020906 1.3342650629461126 H 0.0 **** 0.06
18979 H 16.064928901530692 70.51898515985471 1.6283916594702887 H 0.0 **** 0.06
18980 H 16.829941896055857 69.13381642463827 2.4443383646916566 H 0.0 **** 0.06
18981 C 51.131074701413496 23.672020922856916 90.54279770778993 C 0.0 **** -0.24
18982 H 51.47685169042333 23.190279887487577 91.4576618216875 H 0.0 **** 0.06
18983 H 51.509944663411545 23.1260756822237 89.67921055212052 H 0.0 **** 0.06
18984 H 51.494978787172684 24.69840877204308 90.51292806339123 H 0.0 **** 0.06
18985 H 50.040593319370274 23.67307074185942 90.52287777318733 H 0.0 **** 0.06
18986 C 88.38670013436152 56.99040973736925 97.92013137885289 C 0.0 **** -0.24
18987 H 87.48208989483858 56.41322952131232 98.10791770708539 H 0.0 **** 0.06
18988 H 88.27843304888978 57.54118069193429 96.98613082976567 H 0.0 **** 0.06
18989 H 89.23939635771987 56.315214830913405 97.84730646081431 H 0.0 **** 0.06
18990 H 88.54722341724579 57.69068716678382 98.73952093001299 H 0.0 **** 0.06
18991 C 50.27443180210764 42.02651676034374 118.3259325572212 C 0.0 **** -0.24
18992 H 50.33034370132384 42.11605911979239 117.24135178149903 H 0.0 **** 0.06
18993 H 49.3176371909272 41.585931964090825 118.60534185042589 H 0.0 **** 0.06
18994 H 50.365366984804325 43.01494350150058 118.77795016974771 H 0.0 **** 0.06
18995 H 51.08576938727123 41.38933829000592 118.6792460795316 H 0.0 **** 0.06
18996 C 32.24521406737672 105.91626903924143 105.45390099184495 C 0.0 **** -0.24
18997 H 31.52733003563214 106.35589414871103 104.76144395276512 H 0.0 **** 0.06
18998 H 31.963716546547126 106.16667408403825 106.47737546831488 H 0.0 **** 0.06
18999 H 33.24011568203812 106.30884745000608 105.24410244474964 H 0.0 **** 0.06
19000 H 32.24989807283435 104.83232156044548 105.33308926032312 H 0.0 **** 0.06
19001 C 88.12341409690495 44.05562538911755 4.36755538311786 C 0.0 **** -0.24
19002 H 87.6535549341204 43.07151036713827 4.374592945512347 H 0.0 **** 0.06
19003 H 88.77564172161094 44.140501306556274 3.498309917845802 H 0.0 **** 0.06
19004 H 88.7105437464719 44.18387226080742 5.277072287968963 H 0.0 **** 0.06
19005 H 87.35238811775064 44.82486804960095 4.321024168147005 H 0.0 **** 0.06
19006 C 2.2834040201943253 81.86764791932134 126.06675346190751 C 0.0 **** -0.24
19007 H 2.0516298944888263 81.45148304179033 127.04681671586208 H 0.0 **** 0.06
19008 H 3.2006046632853895 81.41530405065656 125.68775405117708 H 0.0 **** 0.06
19009 H 2.417762263283862 82.9458720585799 126.1524332713161 H 0.0 **** 0.06
19010 H 1.4634703183353963 81.6569835307898 125.37973181644438 H 0.0 **** 0.06
19011 C 112.65719080334775 113.80212961763313 46.23359107943038 C 0.0 **** -0.24
19012 H 112.95762284785108 112.88081794557637 46.7328063333405 H 0.0 **** 0.06
19013 H 113.48044073923832 114.1668531905262 45.61844817936501 H 0.0 **** 0.06
19014 H 112.40155604159283 114.55396238036484 46.98163516294083 H 0.0 **** 0.06
19015 H 111.79063382923046 113.60772239959987 45.60322911975733 H 0.0 **** 0.06
19016 C 121.52028218152822 26.494598126317186 5.698134944271601 C 0.0 **** -0.24
19017 H 121.8841540996392 27.21903757456093 4.969516263083051 H 0.0 **** 0.06
19018 H 122.16121849403117 25.6126619762218 5.6843589080959305 H 0.0 **** 0.06
19019 H 120.49929155147314 26.20743756622477 5.44643388504727 H 0.0 **** 0.06
19020 H 121.53660936609228 26.941012745665347 6.693174625526467 H 0.0 **** 0.06
19021 C 122.07385161071682 69.44463481970317 106.26976849724892 C 0.0 **** -0.24
19022 H 122.49777143366819 69.82333802674495 105.33953822795084 H 0.0 **** 0.06
19023 H 122.67377326458615 68.60802577367755 106.62769415071708 H 0.0 **** 0.06
19024 H 121.05200400878698 69.11034296165215 106.09287063928755 H 0.0 **** 0.06
19025 H 122.07245585318256 70.23780102553746 107.01732644371319 H 0.0 **** 0.06
19026 C 46.94587463241655 94.85493104941317 129.84443983825423 C 0.0 **** -0.24
19027 H 47.29676380418272 94.9325505148844 128.81510291099514 H 0.0 **** 0.06
19028 H 46.31359078844804 93.9733019825837 129.94606541787886 H 0.0 **** 0.06
19029 H 46.37193275028869 95.74560947143397 130.10036588315742 H 0.0 **** 0.06
19030 H 47.80168778497415 94.76929588888682 130.51405610051853 H 0.0 **** 0.06
19031 C 64.69896885307878 54.48514254394058 83.81981269750537 C 0.0 **** -0.24
19032 H 65.27975066525028 53.66702577679618 84.24459364502547 H 0.0 **** 0.06
19033 H 63.65109040356867 54.18981304365761 83.75426277134522 H 0.0 **** 0.06
19034 H 65.07445829091941 54.71688579713842 82.82318728727455 H 0.0 **** 0.06
19035 H 64.7902065788004 55.36464308505904 84.4570935915823 H 0.0 **** 0.06
19036 C 22.441659011311934 70.17456259122332 12.708723401319446 C 0.0 **** -0.24
19037 H 21.69943827523751 70.81841811947646 12.237526126435569 H 0.0 **** 0.06
19038 H 23.13309024655402 70.78350872493834 13.29249990949296 H 0.0 **** 0.06
19039 H 22.993752593550035 69.63274274231529 11.940117875092028 H 0.0 **** 0.06
19040 H 21.94105681694623 69.46278002507964 13.365680425679386 H 0.0 **** 0.06
19041 C 65.52149279790392 128.3387694623117 80.06361198906278 C 0.0 **** -0.24
19042 H 65.68006574832933 127.35829178975943 79.61604573736729 H 0.0 **** 0.06
19043 H 65.57511196557661 128.254666101415 81.14933530329073 H 0.0 **** 0.06
19044 H 64.53885341183225 128.7141754267605 79.77661074878641 H 0.0 **** 0.06
19045 H 66.2903595771008 129.02695964222835 79.71369403936313 H 0.0 **** 0.06
19046 C 47.789853192626566 128.48513366892632 130.5592460231253 C 0.0 **** -0.24
19047 H 48.853316474703604 128.7207341079485 130.53026834823922 H 0.0 **** 0.06
19048 H 47.497680853070165 128.2502995385877 131.5824667670256 H 0.0 **** 0.06
19049 H 47.59099759521632 127.62576884867055 129.91770949909375 H 0.0 **** 0.06
19050 H 47.2178782532188 129.34206844430264 130.20480156440664 H 0.0 **** 0.06
19051 C 56.625736912783026 31.087904696087776 38.817148051515325 C 0.0 **** -0.24
19052 H 57.31404341345748 31.933177948855814 38.822417671365415 H 0.0 **** 0.06
19053 H 56.871673082133015 30.415716592716876 39.639424795666685 H 0.0 **** 0.06
19054 H 56.71397506509774 30.553516557731086 37.87134056325154 H 0.0 **** 0.06
19055 H 55.6044573102767 31.449898614199014 38.93716415941481 H 0.0 **** 0.06
19056 C 23.998546533802482 95.98922198983746 69.48671005403337 C 0.0 **** -0.24
19057 H 23.330493269487704 95.7541805346646 70.31479143458608 H 0.0 **** 0.06
19058 H 24.947865179700443 96.35539751173567 69.87841032194808 H 0.0 **** 0.06
19059 H 23.543775186185258 96.75654899737505 68.85904227813784 H 0.0 **** 0.06
19060 H 24.171207362896098 95.0907427491135 68.89346237132324 H 0.0 **** 0.06
19061 C 49.273338352069544 102.47258010591122 79.60751158425973 C 0.0 **** -0.24
19062 H 49.36461200178621 101.38901791778258 79.52802818025864 H 0.0 **** 0.06
19063 H 48.27781296439603 102.77741636093431 79.28509024296162 H 0.0 **** 0.06
19064 H 50.02146341276385 102.946241580129 78.97284466303714 H 0.0 **** 0.06
19065 H 49.42938745945007 102.77475798868451 80.64279397938296 H 0.0 **** 0.06
19066 C 68.6141632820044 48.13840401655551 77.45954518665694 C 0.0 **** -0.24
19067 H 68.0841420522548 47.389186122209026 78.04660007698216 H 0.0 **** 0.06
19068 H 68.08845471195264 48.30189626583248 76.51860667978991 H 0.0 **** 0.06
19069 H 69.62682718240023 47.79007205139692 77.25481079244187 H 0.0 **** 0.06
19070 H 68.65810836674706 49.072938152802806 78.01815972679488 H 0.0 **** 0.06
19071 C 41.08808294741094 30.43718058238204 111.4119202150994 C 0.0 **** -0.24
19072 H 41.02560875810539 29.36396726954581 111.2365248382726 H 0.0 **** 0.06
19073 H 42.106411516596125 30.70030143861274 111.69885546093916 H 0.0 **** 0.06
19074 H 40.40199147647928 30.715578414214264 112.21298994563182 H 0.0 **** 0.06
19075 H 40.81719857628755 30.97083548140469 110.50025928997196 H 0.0 **** 0.06
19076 C 53.481846857923415 117.42526257309763 38.38446363722176 C 0.0 **** -0.24
19077 H 52.861733629470166 118.09434567038721 37.787986599444594 H 0.0 **** 0.06
19078 H 53.638880969429124 116.49412250870746 37.840655859478545 H 0.0 **** 0.06
19079 H 52.98320256112254 117.21435991759229 39.33095053781392 H 0.0 **** 0.06
19080 H 54.44385922107625 117.90017750024288 38.57970848963845 H 0.0 **** 0.06
19081 C 44.68276172370389 128.33185784579405 4.665714265524343 C 0.0 **** -0.24
19082 H 44.07372938518944 128.03310865009553 3.81277348522525 H 0.0 **** 0.06
19083 H 44.03892202906178 128.5111096495782 5.527295809770237 H 0.0 **** 0.06
19084 H 45.22792341818683 129.24372308390377 4.422093697556932 H 0.0 **** 0.06
19085 H 45.39242729909125 127.53731657556546 4.901367702165487 H 0.0 **** 0.06
19086 C 82.00885607718907 105.26051039177608 40.85390509328266 C 0.0 **** -0.24
19087 H 81.44576452973725 106.1025322507974 41.25759385963846 H 0.0 **** 0.06
19088 H 81.74484684338324 104.35376801414739 41.39803820838529 H 0.0 **** 0.06
19089 H 83.07613208021284 105.4521799564882 40.963368164312044 H 0.0 **** 0.06
19090 H 81.76835303354041 105.13519734770347 39.79841356373959 H 0.0 **** 0.06
19091 C 47.160326667000646 28.63195668418807 33.2447159997172 C 0.0 **** -0.24
19092 H 48.08039456543162 29.057211085196705 33.64568137031824 H 0.0 **** 0.06
19093 H 47.404052158029685 27.796452433836095 32.586927950931 H 0.0 **** 0.06
19094 H 46.62223653173419 29.393536931364295 32.68196392407947 H 0.0 **** 0.06
19095 H 46.536693078689495 28.27761932892401 34.06511262544649 H 0.0 **** 0.06
19096 C 51.11971253764551 78.83190751265406 79.21907701577274 C 0.0 **** -0.24
19097 H 50.57400563514972 79.70163524153887 79.58424970674344 H 0.0 **** 0.06
19098 H 50.41514520029318 78.03394933257367 78.98178362014515 H 0.0 **** 0.06
19099 H 51.81228296967646 78.48878774292382 79.98681812950637 H 0.0 **** 0.06
19100 H 51.67604395384876 79.10391974544335 78.3218199756146 H 0.0 **** 0.06
19101 C 94.77322270114738 36.403701568835345 130.76482807811573 C 0.0 **** -0.24
19102 H 94.13258921535035 37.27663489743287 130.64497593240344 H 0.0 **** 0.06
19103 H 94.19212287920953 35.49920863706427 130.58344716545855 H 0.0 **** 0.06
19104 H 95.1727762433633 36.38236623522391 131.77885630948984 H 0.0 **** 0.06
19105 H 95.59522214538518 36.456123613074055 130.0507123110122 H 0.0 **** 0.06
19106 C 47.01261073202275 120.96711723964836 12.784034566713785 C 0.0 **** -0.24
19107 H 47.581354959935986 121.54745130993592 12.055983769347538 H 0.0 **** 0.06
19108 H 47.37707648379786 119.93926960454246 12.792723410157663 H 0.0 **** 0.06
19109 H 45.95756064589282 120.97793613518888 12.510641569917023 H 0.0 **** 0.06
19110 H 47.13658481237751 121.40571319330923 13.773498265988863 H 0.0 **** 0.06
19111 C 75.74246247736036 110.0988128038272 75.97665389527583 C 0.0 **** -0.24
19112 H 76.6061665875344 109.48033655111723 76.21963079300534 H 0.0 **** 0.06
19113 H 75.89777034081385 110.57400848445059 75.00722876014726 H 0.0 **** 0.06
19114 H 75.61920225992924 110.86546735100089 76.74113355714277 H 0.0 **** 0.06
19115 H 74.84875004873135 109.47616504954084 75.93806209043018 H 0.0 **** 0.06
19116 C 52.37117900458237 4.815820493009422 75.14887679976607 C 0.0 **** -0.24
19117 H 51.67885975104497 5.214661121657091 75.89089817588379 H 0.0 **** 0.06
19118 H 53.214256265827174 5.4983629011846595 75.03605777094495 H 0.0 **** 0.06
19119 H 51.857096052035786 4.7118393379760874 74.19331983577828 H 0.0 **** 0.06
19120 H 52.73310100325422 3.8410648861082777 75.4754030987502 H 0.0 **** 0.06
19121 C 115.52713109840948 27.805788976492416 115.1981052770709 C 0.0 **** -0.24
19122 H 116.44799798741707 27.38690577634344 115.60426968374878 H 0.0 **** 0.06
19123 H 115.21324248418324 27.222796562297063 114.33179280612565 H 0.0 **** 0.06
19124 H 115.69954774422291 28.839583731841344 114.89731894079269 H 0.0 **** 0.06
19125 H 114.74773617781472 27.77386983548798 115.95903967761632 H 0.0 **** 0.06
19126 C 103.86086444727734 126.22283634695933 126.12964200042569 C 0.0 **** -0.24
19127 H 104.65331699472864 126.94741979501632 126.31510686814755 H 0.0 **** 0.06
19128 H 102.9793533086783 126.49189647129688 126.7121248477442 H 0.0 **** 0.06
19129 H 104.20088730343898 125.22877698633036 126.42192264595228 H 0.0 **** 0.06
19130 H 103.60990018226362 126.22325213519375 125.06941363985887 H 0.0 **** 0.06
19131 C 97.89140442465451 106.1942153945937 18.57886768547644 C 0.0 **** -0.24
19132 H 98.09985454923608 106.50149802476767 17.553167191686583 H 0.0 **** 0.06
19133 H 97.95469328295985 107.06123292854187 19.237055069507306 H 0.0 **** 0.06
19134 H 98.62157894257079 105.44823836142152 18.88943136046555 H 0.0 **** 0.06
19135 H 96.8897365266904 105.76846487579854 18.633111176929503 H 0.0 **** 0.06
19136 C 42.80571605368104 121.18731136420018 47.530513664131405 C 0.0 **** -0.24
19137 H 43.48598604072512 121.88849329210682 48.012243908144825 H 0.0 **** 0.06
19138 H 42.657369113097786 120.3222595329638 48.17834627428934 H 0.0 **** 0.06
19139 H 43.23219294180518 120.86142397123545 46.58114786942602 H 0.0 **** 0.06
19140 H 41.848152578746834 121.67500559743432 47.35010592527135 H 0.0 **** 0.06
19141 C 60.7524785507174 34.048993492763266 99.85461756215693 C 0.0 **** -0.24
19142 H 60.37384385153885 34.06363240052517 100.87680343352804 H 0.0 **** 0.06
19143 H 60.355785166797205 33.17733015041634 99.33352075724036 H 0.0 **** 0.06
19144 H 61.84114584501528 33.99826115171931 99.87168270952662 H 0.0 **** 0.06
19145 H 60.438418172593714 34.956498827779825 99.33765364568387 H 0.0 **** 0.06
19146 C 70.77361686416444 4.371358506320519 35.58953888533745 C 0.0 **** -0.24
19147 H 71.00497807233131 4.025402961997145 34.5819644513156 H 0.0 **** 0.06
19148 H 71.54321390672283 4.022164376523506 36.278888140128345 H 0.0 **** 0.06
19149 H 69.80488035694918 3.975095483679013 35.89560705564108 H 0.0 **** 0.06
19150 H 70.74094793782703 5.460456341170101 35.60103123078565 H 0.0 **** 0.06
19151 C 120.61566284557286 124.87139048137857 92.29187814470575 C 0.0 **** -0.24
19152 H 121.19197515446618 124.26606002850929 92.99202218133232 H 0.0 **** 0.06
19153 H 119.75303957935694 124.30290517168754 91.94429646627852 H 0.0 **** 0.06
19154 H 121.24271819491742 125.13778851143624 91.44067183448783 H 0.0 **** 0.06
19155 H 120.27595967079858 125.77966797041174 92.79094256937498 H 0.0 **** 0.06
19156 C 71.83507626851639 105.06628282353334 12.184214958290994 C 0.0 **** -0.24
19157 H 72.50202038088065 105.27193678915486 13.02225644942041 H 0.0 **** 0.06
19158 H 70.86502421690874 105.52517541422 12.371455432948068 H 0.0 **** 0.06
19159 H 71.71316514192537 103.98829778211895 12.074714080567247 H 0.0 **** 0.06
19160 H 72.26355573579822 105.47816587779474 11.270048555288568 H 0.0 **** 0.06
19161 C 51.49566747447295 11.876826678699842 112.48627865630623 C 0.0 **** -0.24
19162 H 51.11721590741742 12.850450792330207 112.79861821713449 H 0.0 **** 0.06
19163 H 50.663142571854834 11.248567624737746 112.17037789783902 H 0.0 **** 0.06
19164 H 52.01289350042542 11.403622687114364 113.3201777023669 H 0.0 **** 0.06
19165 H 52.18920243074676 12.007460662758433 111.65487227981741 H 0.0 **** 0.06
19166 C 25.478302456508317 94.59462891588342 125.46262750370317 C 0.0 **** -0.24
19167 H 26.257762711181726 94.33952210079403 126.18083479543998 H 0.0 **** 0.06
19168 H 25.508026445594226 95.66507396484414 125.25922801609653 H 0.0 **** 0.06
19169 H 24.50488581120635 94.3295191853245 125.87605025442463 H 0.0 **** 0.06
19170 H 25.64330974754165 94.04289274620109 124.53757927751667 H 0.0 **** 0.06
19171 C 98.09478123619924 29.677446590786303 12.949309457109933 C 0.0 **** -0.24
19172 H 97.06739046813986 29.35596181229846 12.776308716250298 H 0.0 **** 0.06
19173 H 98.77677162996689 28.870012720860927 12.68284911134856 H 0.0 **** 0.06
19174 H 98.22271405009151 29.930399948808315 14.001567617118013 H 0.0 **** 0.06
19175 H 98.30872800560667 30.552651731407025 12.336676488736174 H 0.0 **** 0.06
19176 C 16.24729568947552 121.50842773750153 114.50047460601559 C 0.0 **** -0.24
19177 H 16.372843386820477 122.42015745628332 113.9164179588663 H 0.0 **** 0.06
19178 H 16.10633923879655 121.76632775040846 115.55076571317366 H 0.0 **** 0.06
19179 H 17.1359083322009 120.88540061484869 114.39565436310204 H 0.0 **** 0.06
19180 H 15.376347100996213 120.96271748226746 114.1387173755329 H 0.0 **** 0.06
19181 C 76.25721020858083 109.10650974012373 84.33524339980355 C 0.0 **** -0.24
19182 H 76.20853279470683 108.24233577888627 83.67260295998969 H 0.0 **** 0.06
19183 H 75.25104224771862 109.48755926795742 84.50936907216017 H 0.0 **** 0.06
19184 H 76.86594352844374 109.88364156361726 83.8727443617008 H 0.0 **** 0.06
19185 H 76.70435799862958 108.81220082648113 85.2842984772202 H 0.0 **** 0.06
19186 C 2.9359935724475292 49.00022457430421 0.329947491234142 C 0.0 **** -0.24
19187 H 2.824336422929747 48.104280652041695 0.9397454734636028 H 0.0 **** 0.06
19188 H 3.7430387219482952 48.85203744501257 -0.3882413596433256 H 0.0 **** 0.06
19189 H 3.171937753157067 49.849209622439844 0.9721548133123719 H 0.0 **** 0.06
19190 H 2.005422088510187 49.19496951293158 -0.20274619802765592 H 0.0 **** 0.06
19191 C 88.2154602308306 37.575985071458234 48.59419727118362 C 0.0 **** -0.24
19192 H 88.72527843501517 38.062941944871994 49.42454706697376 H 0.0 **** 0.06
19193 H 87.13727742146119 37.61828811056054 48.75517201571418 H 0.0 **** 0.06
19194 H 88.53296159766708 36.53556736802008 48.53235636223363 H 0.0 **** 0.06
19195 H 88.46409394110125 38.08731446795841 47.664707654734144 H 0.0 **** 0.06
19196 C 93.14577089011375 35.25573394129731 109.32255089564727 C 0.0 **** -0.24
19197 H 94.00916641754266 34.624242918209916 109.5286931855745 H 0.0 **** 0.06
19198 H 92.2631868313694 34.8347647117057 109.80478402505977 H 0.0 **** 0.06
19199 H 92.98133066844443 35.30767646230953 108.24629913370416 H 0.0 **** 0.06
19200 H 93.32864885455817 36.25858333484314 109.71042496964621 H 0.0 **** 0.06
19201 C 60.967211561963154 26.306823211628192 97.53159195289935 C 0.0 **** -0.24
19202 H 60.79090239432054 27.359470130662665 97.7515896346225 H 0.0 **** 0.06
19203 H 60.31422564463847 25.69128931532987 98.15175885249663 H 0.0 **** 0.06
19204 H 62.00791217249804 26.060813679477775 97.74288091530019 H 0.0 **** 0.06
19205 H 60.754874071036625 26.11545482401737 96.47989076813748 H 0.0 **** 0.06
19206 C 123.64132548270561 42.98412055900469 45.3609551949998 C 0.0 **** -0.24
19207 H 122.99072007411537 43.41141038510907 44.5979018042446 H 0.0 **** 0.06
19208 H 124.4599125334422 43.67322135449074 45.567937769139974 H 0.0 **** 0.06
19209 H 124.04469663671787 42.036565029738625 45.00521843043256 H 0.0 **** 0.06
19210 H 123.06844965301453 42.81451544472579 46.27305875404622 H 0.0 **** 0.06
19211 C 12.586201644166977 39.923925506058936 16.737399914748856 C 0.0 **** -0.24
19212 H 13.111081877549879 38.97679237813995 16.863193650806323 H 0.0 **** 0.06
19213 H 12.282738087876794 40.303444073226814 17.71387525094965 H 0.0 **** 0.06
19214 H 11.70385997782742 39.769746165553215 16.116257913930244 H 0.0 **** 0.06
19215 H 13.247982491290259 40.64530962546431 16.256588504645414 H 0.0 **** 0.06
19216 C 63.30069332160903 54.00101590887516 0.5391675365945048 C 0.0 **** -0.24
19217 H 62.47451268982323 53.475583973588016 1.019333525390664 H 0.0 **** 0.06
19218 H 64.03771334199718 54.2826920154385 1.2917846895114735 H 0.0 **** 0.06
19219 H 62.92314532100178 54.89645630494783 0.04647755511319929 H 0.0 **** 0.06
19220 H 63.765065161998706 53.348233428511605 -0.19977040373430555 H 0.0 **** 0.06
19221 C 64.11361958466406 124.25721232061815 52.89076323041368 C 0.0 **** -0.24
19222 H 64.13982247145546 123.17471984616523 53.016699461178376 H 0.0 **** 0.06
19223 H 63.92306801696583 124.73019374684841 53.85380378234683 H 0.0 **** 0.06
19224 H 63.31932866779988 124.52182825628856 52.1914915262646 H 0.0 **** 0.06
19225 H 65.0708842282908 124.60110512237108 52.49929599129976 H 0.0 **** 0.06
19226 C 54.310015965599064 61.924282901762325 45.23606007472992 C 0.0 **** -0.24
19227 H 53.85347802014718 62.43600942367436 46.08292281759779 H 0.0 **** 0.06
19228 H 55.28235793978229 61.5293586343511 45.53219084673958 H 0.0 **** 0.06
19229 H 54.4383774745703 62.62599162006785 44.41210094388428 H 0.0 **** 0.06
19230 H 53.66681040661767 61.1041497565227 44.91769443672442 H 0.0 **** 0.06
19231 C 72.37061142268287 61.55097834852141 92.46051219872177 C 0.0 **** -0.24
19232 H 72.02716947577404 62.105839085918774 91.58706746900324 H 0.0 **** 0.06
19233 H 71.50863195672416 61.18233597604558 93.01763941752776 H 0.0 **** 0.06
19234 H 72.96103178483439 62.2086649200465 93.09953545130972 H 0.0 **** 0.06
19235 H 72.98317725269249 60.70963762361923 92.13902928268942 H 0.0 **** 0.06
19236 C 90.38012395557206 105.2139153240519 38.2965480167203 C 0.0 **** -0.24
19237 H 91.25403284055866 105.56524844542757 37.74804390282703 H 0.0 **** 0.06
19238 H 89.62007033243327 104.87672686046656 37.59145587828184 H 0.0 **** 0.06
19239 H 89.97894537249616 106.02875215457179 38.9000744968581 H 0.0 **** 0.06
19240 H 90.66597848098073 104.38734957435206 38.946532387508654 H 0.0 **** 0.06
19241 C 61.51891945954816 37.13184070547264 74.13834663086564 C 0.0 **** -0.24
19242 H 61.012607235865886 38.097196717783106 74.15390921098682 H 0.0 **** 0.06
19243 H 62.36103333546458 37.17409008242839 73.44621746298799 H 0.0 **** 0.06
19244 H 60.820614685638304 36.3608572957213 73.81507676321904 H 0.0 **** 0.06
19245 H 61.88258926439079 36.89711135048981 75.13842204759578 H 0.0 **** 0.06
19246 C 128.22438554420114 23.29009128806058 47.69505779838897 C 0.0 **** -0.24
19247 H 127.59468100425528 24.09158494726904 47.31052626193281 H 0.0 **** 0.06
19248 H 128.1762846452277 22.43525121394896 47.02005612885722 H 0.0 **** 0.06
19249 H 127.87120892985482 22.993697362286525 48.68319566310197 H 0.0 **** 0.06
19250 H 129.25421286908764 23.63960957103501 47.767238890671365 H 0.0 **** 0.06
19251 C 71.76871517933988 36.45977337481771 45.46077221173408 C 0.0 **** -0.24
19252 H 71.75183436546855 37.482331689455215 45.83884765770415 H 0.0 **** 0.06
19253 H 72.61234615293121 35.924835471511074 45.89861667303387 H 0.0 **** 0.06
19254 H 71.87220387492653 36.475999453348656 44.37632663358079 H 0.0 **** 0.06
19255 H 70.83981374699697 35.95750786762373 45.73014172701437 H 0.0 **** 0.06
19256 C 69.14382757590408 54.25717202801519 80.06468927814434 C 0.0 **** -0.24
19257 H 69.53015533905935 55.261088861528265 79.88767702189352 H 0.0 **** 0.06
19258 H 68.37164032236566 54.030487899000036 79.33016251237 H 0.0 **** 0.06
19259 H 68.71973275002071 54.20319068812279 81.06698565257 H 0.0 **** 0.06
19260 H 69.95543581494485 53.5357189624894 79.97410798133879 H 0.0 **** 0.06
19261 C 31.461464272046932 117.11850745646223 74.02719113774164 C 0.0 **** -0.24
19262 H 31.19285490899609 118.16767942296643 73.90987709513178 H 0.0 **** 0.06
19263 H 31.04358604398292 116.736985978822 74.9594972513559 H 0.0 **** 0.06
19264 H 32.547156400208735 117.0211676888004 74.04875670613718 H 0.0 **** 0.06
19265 H 31.06225229061843 116.54625500503505 73.18952448614097 H 0.0 **** 0.06
19266 C 61.88226071607181 80.15293428465652 4.641447246640141 C 0.0 **** -0.24
19267 H 62.22645368880826 81.16787283223844 4.84085493122161 H 0.0 **** 0.06
19268 H 61.797750391218386 79.60681697615166 5.581311808791213 H 0.0 **** 0.06
19269 H 62.59696905408842 79.64898479691446 3.9904646046702617 H 0.0 **** 0.06
19270 H 60.90920373440582 80.18892440402301 4.152466425959101 H 0.0 **** 0.06
19271 C 100.88704766550964 127.79445799347147 83.10555913999994 C 0.0 **** -0.24
19272 H 101.06750938799622 128.75443973953227 82.6231060169913 H 0.0 **** 0.06
19273 H 99.88378365695178 127.44656300659238 82.85811032520922 H 0.0 **** 0.06
19274 H 100.97524477538444 127.908485325817 84.18609211950951 H 0.0 **** 0.06
19275 H 101.62045699084064 127.06878515499662 82.75610087460997 H 0.0 **** 0.06
19276 C 59.191137246383235 123.28950857519122 121.05864089365627 C 0.0 **** -0.24
19277 H 58.69853180208372 124.11440037864243 121.57380774131954 H 0.0 **** 0.06
19278 H 60.079325449557544 123.66005509617811 120.54615723395537 H 0.0 **** 0.06
19279 H 58.50562525571101 122.85515955929081 120.33109384917114 H 0.0 **** 0.06
19280 H 59.480402567003125 122.52906475963948 121.78388239644497 H 0.0 **** 0.06
19281 C 43.88966187217068 115.35475054335957 107.19819833811519 C 0.0 **** -0.24
19282 H 44.079309719478545 116.08836971360145 107.98259119331973 H 0.0 **** 0.06
19283 H 43.39600286940612 114.48279018554213 107.6297322445173 H 0.0 **** 0.06
19284 H 44.834665547530506 115.05184195073149 106.74786082133801 H 0.0 **** 0.06
19285 H 43.24826994214686 115.79603696009069 106.43604999443403 H 0.0 **** 0.06
19286 C 13.823818395048875 8.028859578720443 60.80209848270792 C 0.0 **** -0.24
19287 H 12.85947215375009 7.985775448169392 61.30682857754627 H 0.0 **** 0.06
19288 H 14.605375168197355 8.252004280543787 61.52926764776541 H 0.0 **** 0.06
19289 H 13.800738955299153 8.810479609649718 60.04149737752212 H 0.0 **** 0.06
19290 H 14.03034171621789 7.068378411096887 60.329735777476 H 0.0 **** 0.06
19291 C 10.694273546674339 87.3766417469222 130.3675749737981 C 0.0 **** -0.24
19292 H 11.498498393695883 87.6728643073118 129.69385761644946 H 0.0 **** 0.06
19293 H 10.628573270056762 86.28837773003652 130.39846924595295 H 0.0 **** 0.06
19294 H 9.751033567393335 87.78830978928356 130.01055655424204 H 0.0 **** 0.06
19295 H 10.90107601029942 87.75631106601142 131.36780213693527 H 0.0 **** 0.06
19296 C 63.30814182618289 55.23283763711521 97.11222721406651 C 0.0 **** -0.24
19297 H 63.59245811950008 55.26497214868195 98.1633214095998 H 0.0 **** 0.06
19298 H 63.94969602566796 54.52765602392742 96.58412253462103 H 0.0 **** 0.06
19299 H 63.42166662417924 56.225012155086205 96.67462310696521 H 0.0 **** 0.06
19300 H 62.26939779894961 54.9146639274244 97.02555088787724 H 0.0 **** 0.06
19301 C 6.308177892495806 56.38174295584929 47.20598227957825 C 0.0 **** -0.24
19302 H 7.146531884221503 56.36622479993753 46.51014020358726 H 0.0 **** 0.06
19303 H 6.444272453860094 57.19458587758595 47.919988706076424 H 0.0 **** 0.06
19304 H 6.262372698124011 55.43308186134601 47.74002388307216 H 0.0 **** 0.06
19305 H 5.380442925945772 56.534546291572894 46.653625058115175 H 0.0 **** 0.06
19306 C 101.61944710505858 22.247758036701015 28.28656731676338 C 0.0 **** -0.24
19307 H 101.67346768098591 21.792494451274578 27.298425003518872 H 0.0 **** 0.06
19308 H 102.50866583422058 21.983786039033788 28.857861663987364 H 0.0 **** 0.06
19309 H 100.73174922941845 21.88507574891404 28.805909760880553 H 0.0 **** 0.06
19310 H 101.56190661899944 23.331903110668797 28.183863452370673 H 0.0 **** 0.06
19311 C 94.62140766926774 124.29026329059585 95.35329295332564 C 0.0 **** -0.24
19312 H 95.48658589877726 124.95282437036846 95.33965864921205 H 0.0 **** 0.06
19313 H 94.94346421817932 123.26882684357406 95.15045153998724 H 0.0 **** 0.06
19314 H 93.9110353634644 124.60623429014797 94.58886243037917 H 0.0 **** 0.06
19315 H 94.14506353201733 124.33553106192997 96.33216296898516 H 0.0 **** 0.06
19316 C 41.933110423670755 15.748188913885855 126.50152141300356 C 0.0 **** -0.24
19317 H 42.7125359741277 16.12511422927875 125.84057323503566 H 0.0 **** 0.06
19318 H 42.26922197476055 14.821724618892773 126.96798947147039 H 0.0 **** 0.06
19319 H 41.02779705170418 15.558017306546276 125.92516655790138 H 0.0 **** 0.06
19320 H 41.723064720486015 16.487900853060665 127.27375939034107 H 0.0 **** 0.06
19321 C 39.86260485847441 104.32723064095018 70.45625586911842 C 0.0 **** -0.24
19322 H 39.46460300115109 103.81545599414358 69.57930446077248 H 0.0 **** 0.06
19323 H 39.14009246607225 105.06642769629235 70.80260690815643 H 0.0 **** 0.06
19324 H 40.79583233994725 104.82517538299533 70.19352795021548 H 0.0 **** 0.06
19325 H 40.04817523565498 103.60172877847705 71.24784169066139 H 0.0 **** 0.06
19326 C 65.14579828468001 126.22324356348797 88.10712610183555 C 0.0 **** -0.24
19327 H 66.18848754555685 126.36586941762422 87.82263275968535 H 0.0 **** 0.06
19328 H 64.8254224404979 125.2210017858221 87.82092991120885 H 0.0 **** 0.06
19329 H 64.52662609846303 126.96199032035248 87.59903806186355 H 0.0 **** 0.06
19330 H 65.04370701037547 126.34274887699098 89.1848849889692 H 0.0 **** 0.06
19331 C 6.226759392308594 128.8548295208331 64.63595452297506 C 0.0 **** -0.24
19332 H 5.7735624373381285 127.89855570730042 64.37456709593943 H 0.0 **** 0.06
19333 H 7.290425785831587 128.7127371773043 64.82832412999926 H 0.0 **** 0.06
19334 H 5.744347659033323 129.25215453575302 65.52941032136351 H 0.0 **** 0.06
19335 H 6.096131937813681 129.55504938810157 63.810666636289 H 0.0 **** 0.06
19336 C 35.62880932343417 31.09347651422155 87.21310042950707 C 0.0 **** -0.24
19337 H 35.711410215021345 30.528923327467567 88.14231101410503 H 0.0 **** 0.06
19338 H 35.92859745065734 30.462504005203982 86.37608294523012 H 0.0 **** 0.06
19339 H 36.277409039530276 31.967599984538822 87.25994029573836 H 0.0 **** 0.06
19340 H 34.595760970097565 31.414751716258365 87.07538737684148 H 0.0 **** 0.06
19341 C 122.60485153237937 83.06013150064405 34.345117835144606 C 0.0 **** -0.24
19342 H 123.59268942174117 82.63871582358877 34.15570382377348 H 0.0 **** 0.06
19343 H 122.67939780097981 83.82832899579999 35.114904130479275 H 0.0 **** 0.06
19344 H 121.93177619939718 82.27116547095953 34.68037543491546 H 0.0 **** 0.06
19345 H 122.21706885564998 83.50197268051139 33.42656326062328 H 0.0 **** 0.06
19346 C 103.30110064981312 66.39178975030403 13.762834726083792 C 0.0 **** -0.24
19347 H 103.903120082864 65.7460588667942 13.122169606390315 H 0.0 **** 0.06
19348 H 102.31498615055779 66.52821640711234 13.316722026971384 H 0.0 **** 0.06
19349 H 103.79115636787469 67.3606434570182 13.863608767117437 H 0.0 **** 0.06
19350 H 103.19591030823244 65.93259689504842 14.745792194555705 H 0.0 **** 0.06
19351 C 47.31440748208604 97.68850487464033 57.50320128986773 C 0.0 **** -0.24
19352 H 48.12844515631241 98.4121752337274 57.559985342755226 H 0.0 **** 0.06
19353 H 47.71597584907818 96.68097714995685 57.61583899959082 H 0.0 **** 0.06
19354 H 46.8174909870512 97.77710263013563 56.53773775518425 H 0.0 **** 0.06
19355 H 46.597752401403795 97.88586277152126 58.30045082938665 H 0.0 **** 0.06
19356 C 58.00332344555423 83.68974144925227 66.79239714745725 C 0.0 **** -0.24
19357 H 57.96619550788475 83.34305919695214 65.75956395011659 H 0.0 **** 0.06
19358 H 58.97190583038386 83.43851029240716 67.22539550296204 H 0.0 **** 0.06
19359 H 57.21207945658742 83.20663121317608 67.36537262721734 H 0.0 **** 0.06
19360 H 57.86268941149169 84.77021554342787 66.8185363476897 H 0.0 **** 0.06
19361 C 60.51737576196828 99.84557651342982 88.04748587357213 C 0.0 **** -0.24
19362 H 61.09207730576392 100.69504541498611 87.67893171388516 H 0.0 **** 0.06
19363 H 61.20053677481164 99.075896882655 88.40880547408182 H 0.0 **** 0.06
19364 H 59.90860500457822 99.44084322966796 87.23928257260492 H 0.0 **** 0.06
19365 H 59.872011799515946 100.17031215601241 88.8626775673382 H 0.0 **** 0.06
19366 C 102.88003237897031 41.24884407857283 87.89031744804669 C 0.0 **** -0.24
19367 H 101.88687157901761 40.879878254508895 87.63140743258967 H 0.0 **** 0.06
19368 H 102.85951672755496 41.67313240167228 88.8945335805219 H 0.0 **** 0.06
19369 H 103.1790564458312 42.01599120696817 87.17650982406047 H 0.0 **** 0.06
19370 H 103.5917832333243 40.42409609407392 87.85819365898246 H 0.0 **** 0.06
19371 C 87.6588577769025 109.70270701969788 40.189173305509826 C 0.0 **** -0.24
19372 H 88.2591890769598 110.59936137948311 40.340806805931464 H 0.0 **** 0.06
19373 H 86.70972516030541 109.80789037801968 40.71482072874463 H 0.0 **** 0.06
19374 H 88.19530306000067 108.83676341694394 40.576047393604966 H 0.0 **** 0.06
19375 H 87.47257033985865 109.56781454970931 39.12324153549244 H 0.0 **** 0.06
19376 C 70.2544124546024 123.73075816898162 35.36119606018917 C 0.0 **** -0.24
19377 H 70.72847422754614 122.84848281253082 35.79148795098186 H 0.0 **** 0.06
19378 H 69.17414704798466 123.59055618499195 35.346551804769405 H 0.0 **** 0.06
19379 H 70.61659746005148 123.87674785566418 34.34388417862692 H 0.0 **** 0.06
19380 H 70.49962470354598 124.60479354834183 35.96446098728083 H 0.0 **** 0.06
19381 C 29.47441050155959 112.35550293649717 25.207316464990512 C 0.0 **** -0.24
19382 H 28.995698722705043 113.2800949525674 25.53193497886373 H 0.0 **** 0.06
19383 H 30.251121375074348 112.58595352751385 24.47675344511851 H 0.0 **** 0.06
19384 H 28.729681030931857 111.70297194444171 24.75250909590487 H 0.0 **** 0.06
19385 H 29.918960737911647 111.85600770942898 26.067682104132466 H 0.0 **** 0.06
19386 C 110.02042510877155 106.87648620819067 43.50731830187885 C 0.0 **** -0.24
19387 H 109.36752893419165 106.76799627245663 44.37344300135133 H 0.0 **** 0.06
19388 H 109.57534654137285 107.58031250154392 42.80361231288568 H 0.0 **** 0.06
19389 H 110.14707807358896 105.90846813635284 43.023400475657105 H 0.0 **** 0.06
19390 H 110.99202495666627 107.25064743055378 43.830470902445235 H 0.0 **** 0.06
19391 C 47.07581195804602 24.969979510960314 124.40178188221863 C 0.0 **** -0.24
19392 H 47.26838997829972 25.61265152012072 123.54249561682607 H 0.0 **** 0.06
19393 H 48.023527604439465 24.655636731906213 124.83981291099477 H 0.0 **** 0.06
19394 H 46.51471007533351 24.092963234297457 124.07880261220053 H 0.0 **** 0.06
19395 H 46.496312429827185 25.51986768308555 125.14278169223468 H 0.0 **** 0.06
19396 C 121.80257199211695 128.11617513788232 20.771197038683226 C 0.0 **** -0.24
19397 H 121.44025767987159 128.5833530293631 21.687498126887363 H 0.0 **** 0.06
19398 H 122.87945126436159 127.96488895736695 20.843023026970286 H 0.0 **** 0.06
19399 H 121.58255980704223 128.76401531747376 19.922307620635564 H 0.0 **** 0.06
19400 H 121.3080577189412 127.1556634383845 20.633235921875865 H 0.0 **** 0.06
19401 C 2.541265870189953 112.60221658379415 19.65454806255657 C 0.0 **** -0.24
19402 H 2.006250785195242 113.05745448598567 18.82210966382968 H 0.0 **** 0.06
19403 H 2.662857222869981 111.53540449238677 19.468593934320914 H 0.0 **** 0.06
19404 H 1.97447835606307 112.74855405051399 20.57509835433965 H 0.0 **** 0.06
19405 H 3.5221279946376107 113.06804898003942 19.75507767158441 H 0.0 **** 0.06
19406 C 65.73487651314974 65.34891213397543 42.25893509664595 C 0.0 **** -0.24
19407 H 65.24855698769571 65.37067895440578 43.233657588572 H 0.0 **** 0.06
19408 H 65.46024276544384 64.43239780431938 41.73668873598839 H 0.0 **** 0.06
19409 H 66.81560101185329 65.38184332527683 42.39104291122876 H 0.0 **** 0.06
19410 H 65.41387357362436 66.21112020315965 41.67377710940608 H 0.0 **** 0.06
19411 C 42.128040051058406 82.74814153353078 80.35105842669594 C 0.0 **** -0.24
19412 H 41.93833499926234 82.93614551136689 79.29439483104835 H 0.0 **** 0.06
19413 H 41.4625785086468 83.36516534343049 80.95491522157462 H 0.0 **** 0.06
19414 H 43.16422051761265 82.99733651016052 80.58384690975699 H 0.0 **** 0.06
19415 H 41.94967219256563 81.6963053241963 80.57052566082751 H 0.0 **** 0.06
19416 C 42.5937372974615 130.53467710113236 14.865277896345276 C 0.0 **** -0.24
19417 H 43.05641620072751 131.13412566113786 14.080929660824992 H 0.0 **** 0.06
19418 H 43.25287997327746 130.50290910084672 15.733922993118597 H 0.0 **** 0.06
19419 H 42.42771374498403 129.52245419151208 14.49743228267485 H 0.0 **** 0.06
19420 H 41.6406491077492 130.98029545231205 15.14811988939286 H 0.0 **** 0.06
19421 C 2.878012692766532 102.01870154022859 67.55710952699704 C 0.0 **** -0.24
19422 H 3.2565787737113396 101.18207225705036 66.96909278733372 H 0.0 **** 0.06
19423 H 1.982475856111563 102.41999377239686 67.08183294078762 H 0.0 **** 0.06
19424 H 3.6396264822122077 102.79708190464108 67.6136512910256 H 0.0 **** 0.06
19425 H 2.6332022727825404 101.67520551219039 68.56253174945604 H 0.0 **** 0.06
19426 C 118.64632789638625 14.961409822791438 91.2688282988729 C 0.0 **** -0.24
19427 H 117.66916355634157 15.444711268074286 91.2958300455077 H 0.0 **** 0.06
19428 H 118.71154279538942 14.323061268361585 90.38730368196266 H 0.0 **** 0.06
19429 H 118.77830408060606 14.357946110810332 92.16655279492397 H 0.0 **** 0.06
19430 H 119.4258761709338 15.722116004032017 91.22561868628635 H 0.0 **** 0.06
19431 C 73.96669464762785 112.1416666385359 10.585288553301439 C 0.0 **** -0.24
19432 H 73.21970620111198 111.38907488494065 10.839631702096256 H 0.0 **** 0.06
19433 H 73.46906740330733 113.02694515107306 10.189069467544755 H 0.0 **** 0.06
19434 H 74.64621483679377 111.73963614881048 9.83424312808387 H 0.0 **** 0.06
19435 H 74.53039474314483 112.41086141408563 11.47838531760192 H 0.0 **** 0.06
19436 C 59.256326425666316 28.180213132410728 53.90110344070369 C 0.0 **** -0.24
19437 H 59.30358921355506 28.036156895802577 54.980413168096845 H 0.0 **** 0.06
19438 H 58.35209389671655 28.734221182101493 53.64764116857121 H 0.0 **** 0.06
19439 H 59.238181171828785 27.20931872970658 53.406021350058154 H 0.0 **** 0.06
19440 H 60.13033089576086 28.740441324158724 53.57084451684155 H 0.0 **** 0.06
19441 C 40.525975102625466 10.283902172663261 10.415647422902055 C 0.0 **** -0.24
19442 H 40.464636786786514 9.210083271487576 10.593273616949261 H 0.0 **** 0.06
19443 H 40.31072879285108 10.491348460770439 9.367152040375515 H 0.0 **** 0.06
19444 H 41.5292666288027 10.635545973047044 10.657699611221574 H 0.0 **** 0.06
19445 H 39.799268202061626 10.79863098534804 11.044464423061697 H 0.0 **** 0.06
19446 C 101.12681776342373 26.685086214635618 4.399612378529071 C 0.0 **** -0.24
19447 H 100.9106203110884 26.305565060254736 3.400923824647464 H 0.0 **** 0.06
19448 H 100.71261485302693 27.687939412661706 4.505219671301234 H 0.0 **** 0.06
19449 H 102.20546077728045 26.719590906466664 4.549088407106012 H 0.0 **** 0.06
19450 H 100.67823755171224 26.025930924150174 5.142833452973548 H 0.0 **** 0.06
19451 C 33.290824699655275 50.17784078969284 12.360012910707468 C 0.0 **** -0.24
19452 H 33.25906104733429 50.810020994039036 11.472071592200763 H 0.0 **** 0.06
19453 H 32.36360350161451 50.29337884993113 12.921330360743838 H 0.0 **** 0.06
19454 H 34.13411773314674 50.47223743549803 12.985168870374025 H 0.0 **** 0.06
19455 H 33.40693306504289 49.13691015922474 12.059377416531674 H 0.0 **** 0.06
19456 C 101.26208234741033 113.15172049320935 61.71611832266717 C 0.0 **** -0.24
19457 H 101.33574199538646 113.11128110587359 62.8028042815302 H 0.0 **** 0.06
19458 H 101.91225769261565 113.94099189525431 61.33731599467377 H 0.0 **** 0.06
19459 H 100.23136204593439 113.35991862691 61.42812405408813 H 0.0 **** 0.06
19460 H 101.57119319214812 112.19472975744134 61.29601515221741 H 0.0 **** 0.06
19461 C 124.67407499685949 16.977543893561915 32.05921184851627 C 0.0 **** -0.24
19462 H 123.73202265645484 17.35077361093076 31.65616656875008 H 0.0 **** 0.06
19463 H 124.72833104811497 15.898817407670776 31.91286666035265 H 0.0 **** 0.06
19464 H 124.72834277929275 17.204062822509997 33.123726580975244 H 0.0 **** 0.06
19465 H 125.50516201266484 17.45726190610432 31.541539644927298 H 0.0 **** 0.06
19466 C 4.853603630476556 118.8548200198407 93.93337895672559 C 0.0 **** -0.24
19467 H 4.152051495530358 119.43648321685333 93.33618305622065 H 0.0 **** 0.06
19468 H 4.871797208474959 117.8260243123218 93.57271304989868 H 0.0 **** 0.06
19469 H 4.5410669242343715 118.86848695553346 94.97717465086066 H 0.0 **** 0.06
19470 H 5.8505448466673045 119.2875693010148 93.84681815873222 H 0.0 **** 0.06
19471 C 111.01537885026988 116.92529602549241 98.56910128626708 C 0.0 **** -0.24
19472 H 112.09388542484857 116.87911643242705 98.41749160924078 H 0.0 **** 0.06
19473 H 110.69110862169421 116.05576707443085 99.1412487486782 H 0.0 **** 0.06
19474 H 110.51349907574487 116.9312393049853 97.60121447793306 H 0.0 **** 0.06
19475 H 110.76392718415931 117.83475440897725 99.11419480352303 H 0.0 **** 0.06
19476 C 53.31672436998086 29.77301195961121 26.253814770009996 C 0.0 **** -0.24
19477 H 53.071598277227295 30.509725036866143 27.019350238465876 H 0.0 **** 0.06
19478 H 52.44625207838166 29.60573334701307 25.61886015115855 H 0.0 **** 0.06
19479 H 53.60570734143235 28.83681215154003 26.731105261854104 H 0.0 **** 0.06
19480 H 54.14359178978742 30.141847456990817 25.64675041977962 H 0.0 **** 0.06
19481 C 107.33234573271613 93.76536222613812 91.52140419691986 C 0.0 **** -0.24
19482 H 107.20537555358948 94.08749474035362 92.5550993667433 H 0.0 **** 0.06
19483 H 106.36967331742585 93.45029836023049 91.118112638142 H 0.0 **** 0.06
19484 H 108.03309394179553 92.9314613711249 91.48401748473027 H 0.0 **** 0.06
19485 H 107.72161844834244 94.5933390634813 90.92912675650992 H 0.0 **** 0.06
19486 C 76.31323238606853 21.7604887966514 49.05210094745624 C 0.0 **** -0.24
19487 H 76.23546799278355 22.54054021021244 49.80891064311729 H 0.0 **** 0.06
19488 H 76.6894275786218 22.1922669934886 48.12386535346309 H 0.0 **** 0.06
19489 H 75.3304351212866 21.32276432392851 48.87783885052184 H 0.0 **** 0.06
19490 H 76.99925292222717 20.98687952135856 49.39636822088343 H 0.0 **** 0.06
19491 C 72.31439051531206 34.07752633493416 70.53043608340812 C 0.0 **** -0.24
19492 H 73.29857867112693 33.61650691523917 70.61616974876796 H 0.0 **** 0.06
19493 H 72.05727613352457 34.191717376019966 69.477419908699 H 0.0 **** 0.06
19494 H 72.32989770238632 35.05697080891994 71.01015225721372 H 0.0 **** 0.06
19495 H 71.57303478814435 33.44485620262884 71.01987222149813 H 0.0 **** 0.06
19496 C 103.09495058921647 128.25543120563327 91.27902410644356 C 0.0 **** -0.24
19497 H 102.58715836136477 127.34660323530407 90.95470282460286 H 0.0 **** 0.06
19498 H 103.0380648323319 128.33470063260094 92.36488867778814 H 0.0 **** 0.06
19499 H 102.6122390810149 129.12182336511611 90.82569226948232 H 0.0 **** 0.06
19500 H 104.13924500719362 128.21743387105775 90.97055403103377 H 0.0 **** 0.06
19501 C 32.32926995588276 35.14875783802387 39.718433165102255 C 0.0 **** -0.24
19502 H 31.838162394242275 35.13267372833178 40.69160846127059 H 0.0 **** 0.06
19503 H 33.31834968481088 35.59715223989792 39.818833829239225 H 0.0 **** 0.06
19504 H 31.732234052954404 35.73629359528708 39.02152693690698 H 0.0 **** 0.06
19505 H 32.427948061270314 34.12948567287091 39.34468275648757 H 0.0 **** 0.06
19506 C 32.61707893558548 18.290239465281942 35.35953777236446 C 0.0 **** -0.24
19507 H 32.22998647069244 19.308817972136843 35.34565660081506 H 0.0 **** 0.06
19508 H 32.19730337774081 17.75357358357055 36.21089065667431 H 0.0 **** 0.06
19509 H 33.703210675346895 18.31510310996888 35.44680232555649 H 0.0 **** 0.06
19510 H 32.33932478203735 17.782835307859337 34.436327040754776 H 0.0 **** 0.06
19511 C 55.030855605293624 13.829032505595652 126.66280004658992 C 0.0 **** -0.24
19512 H 54.07609404340005 13.745774462659323 127.18259035082322 H 0.0 **** 0.06
19513 H 54.99394521621579 14.666246483173968 125.9662422141822 H 0.0 **** 0.06
19514 H 55.225886979762976 12.907523264310122 126.11391392664387 H 0.0 **** 0.06
19515 H 55.82547290744375 13.994016779599118 127.38997262839258 H 0.0 **** 0.06
19516 C 53.10355248399645 68.729837311036 86.32171702050437 C 0.0 **** -0.24
19517 H 52.64752616662946 67.77338508964635 86.5756275696869 H 0.0 **** 0.06
19518 H 52.849380077004525 68.99227807250782 85.29421968865995 H 0.0 **** 0.06
19519 H 54.18671720807902 68.6532149958791 86.41966448086413 H 0.0 **** 0.06
19520 H 52.731253908986645 69.50023319375236 86.9966506463943 H 0.0 **** 0.06
19521 C 35.005582953392974 42.22698665674142 103.17123114574147 C 0.0 **** -0.24
19522 H 35.68630033435977 42.99466253406247 102.80413438946007 H 0.0 **** 0.06
19523 H 35.52864528182988 41.58687094361596 103.88185140748152 H 0.0 **** 0.06
19524 H 34.65028970225734 41.62588327628636 102.33333020459182 H 0.0 **** 0.06
19525 H 34.156278743210976 42.70026768933003 103.66354392134551 H 0.0 **** 0.06
19526 C 108.83459470973628 125.12946887309516 52.50408338035675 C 0.0 **** -0.24
19527 H 108.86998736401227 126.09162471944659 51.99178558400638 H 0.0 **** 0.06
19528 H 109.00716071811127 125.27908713922659 53.569906451573615 H 0.0 **** 0.06
19529 H 109.60503008147731 124.47403265932233 52.09840351000264 H 0.0 **** 0.06
19530 H 107.85508659662611 124.67409082151923 52.35455339820186 H 0.0 **** 0.06
19531 C 3.047321613285778 104.34577934701328 91.12484630123639 C 0.0 **** -0.24
19532 H 2.909367976447303 105.38477799335328 91.42410050193871 H 0.0 **** 0.06
19533 H 2.28388002607608 103.72778343923343 91.59834764106732 H 0.0 **** 0.06
19534 H 4.0349687038415 104.00559987537278 91.43618473627271 H 0.0 **** 0.06
19535 H 2.959137598433074 104.26607207630187 90.04089941400872 H 0.0 **** 0.06
19536 C 49.63665957517901 64.48126660264762 116.58193255428779 C 0.0 **** -0.24
19537 H 49.31731163993989 64.13532392550032 117.565099905164 H 0.0 **** 0.06
19538 H 49.37325558146395 65.53321135398087 116.46411428877788 H 0.0 **** 0.06
19539 H 49.138290233771286 63.89326831490014 115.81027747288447 H 0.0 **** 0.06
19540 H 50.71609251972619 64.36311197598233 116.48788222039727 H 0.0 **** 0.06
19541 C 83.7925957266769 56.402839478218254 25.72078730152282 C 0.0 **** -0.24
19542 H 83.68167321405578 57.41941721149287 26.097394986153404 H 0.0 **** 0.06
19543 H 83.21547470681377 55.718988834150224 26.343972787080645 H 0.0 **** 0.06
19544 H 84.84454002653503 56.11859464643537 25.746429682992016 H 0.0 **** 0.06
19545 H 83.42751279926894 56.354327712583896 24.69457603160555 H 0.0 **** 0.06
19546 C 52.04324655525653 99.1637707366212 17.496196434728688 C 0.0 **** -0.24
19547 H 51.104933453162005 98.77420205267755 17.10065596515375 H 0.0 **** 0.06
19548 H 51.84899275747148 100.08110891928888 18.053258973410834 H 0.0 **** 0.06
19549 H 52.72343727069284 99.37717444797025 16.671524423289952 H 0.0 **** 0.06
19550 H 52.49394967444624 98.42488080624571 18.157936396219498 H 0.0 **** 0.06
19551 C 33.01262145308064 109.8532611633747 109.25302535141347 C 0.0 **** -0.24
19552 H 32.10968627114502 109.30582516385599 108.98354005456338 H 0.0 **** 0.06
19553 H 33.190984673144584 109.75442689350211 110.32355549638234 H 0.0 **** 0.06
19554 H 32.88729765114752 110.90712205104737 109.00117869918674 H 0.0 **** 0.06
19555 H 33.86154118984527 109.44740239544308 108.70404690396802 H 0.0 **** 0.06
19556 C 42.59023394256195 38.08301145941708 99.67422928588488 C 0.0 **** -0.24
19557 H 41.73285342397358 38.31250112593514 100.30697616324042 H 0.0 **** 0.06
19558 H 42.491142115038826 38.60881093350172 98.72449079410322 H 0.0 **** 0.06
19559 H 42.631031186599074 37.00914730822185 99.49355885369891 H 0.0 **** 0.06
19560 H 43.50483265928864 38.402592411732606 100.17357352023276 H 0.0 **** 0.06
19561 C 79.52281822237964 100.60591445249415 82.4930352565255 C 0.0 **** -0.24
19562 H 79.07281858120712 101.44047266010128 81.95424080874912 H 0.0 **** 0.06
19563 H 79.87822080928377 100.95035121422096 83.46426581388076 H 0.0 **** 0.06
19564 H 80.36019510778925 100.21155442172375 81.91780003479788 H 0.0 **** 0.06
19565 H 78.77829816122048 99.82219509372608 82.63546894163737 H 0.0 **** 0.06
19566 C 52.11986404178114 28.17054128849756 42.33896347981052 C 0.0 **** -0.24
19567 H 51.05217280669851 28.24606937771697 42.54543239970725 H 0.0 **** 0.06
19568 H 52.592515764144395 29.13647286866226 42.51742639178303 H 0.0 **** 0.06
19569 H 52.268676357347005 27.879069106928185 41.30023001161125 H 0.0 **** 0.06
19570 H 52.5641598189911 27.421336012545545 42.994677760696 H 0.0 **** 0.06
19571 C 9.519166400582748 23.01314493947055 86.34425613228173 C 0.0 **** -0.24
19572 H 8.630907093698653 22.386928859514228 86.43007173515244 H 0.0 **** 0.06
19573 H 10.18073150451508 22.60070834786997 85.58103646373752 H 0.0 **** 0.06
19574 H 10.03983772343463 23.03768027984139 87.30196585102689 H 0.0 **** 0.06
19575 H 9.225394228874649 24.023959419014965 86.06372735881014 H 0.0 **** 0.06
19576 C 90.34029052580344 63.38566406048551 30.253782832479885 C 0.0 **** -0.24
19577 H 90.80722715488112 64.36882690942412 30.19028087677688 H 0.0 **** 0.06
19578 H 89.50037045015253 63.33850000590621 29.561547164694133 H 0.0 **** 0.06
19579 H 89.98495953124248 63.217564427448735 31.27072427625029 H 0.0 **** 0.06
19580 H 91.07126032692844 62.62038095680134 29.992904725324436 H 0.0 **** 0.06
19581 C 59.32801773781176 108.57950299456397 60.331561068880745 C 0.0 **** -0.24
19582 H 59.852987943125896 108.2128684647781 61.21311811291139 H 0.0 **** 0.06
19583 H 58.49016873824391 109.20491061142329 60.640601302419356 H 0.0 **** 0.06
19584 H 58.955565747272146 107.73391293396608 59.752302491138295 H 0.0 **** 0.06
19585 H 60.0129369621082 109.16649313420382 59.71803127088165 H 0.0 **** 0.06
19586 C 129.24812172791457 104.62575581167289 115.3041940485261 C 0.0 **** -0.24
19587 H 130.1458058835571 105.1520341158714 114.98032100188429 H 0.0 **** 0.06
19588 H 128.98344099710772 103.868868161856 114.56596328805504 H 0.0 **** 0.06
19589 H 128.42839187450903 105.33660456242026 115.40675852943019 H 0.0 **** 0.06
19590 H 129.4357049643067 104.14629003198993 116.26564848929308 H 0.0 **** 0.06
19591 C 27.554499673301414 70.60079244479854 69.94676527683077 C 0.0 **** -0.24
19592 H 26.962164961485 69.81918562701452 70.42225852373372 H 0.0 **** 0.06
19593 H 27.93674510034743 71.28166927544038 70.70777295469713 H 0.0 **** 0.06
19594 H 26.92938415621137 71.15354347420617 69.24565804854262 H 0.0 **** 0.06
19595 H 28.38851208956784 70.14827945806132 69.41079165006954 H 0.0 **** 0.06
19596 C 26.037300845191176 54.93707721610687 120.07453381402343 C 0.0 **** -0.24
19597 H 25.395485905724293 54.091380662877185 120.32244391904975 H 0.0 **** 0.06
19598 H 25.66887705026592 55.41972328557134 119.16977467360203 H 0.0 **** 0.06
19599 H 27.055897343601885 54.58359149664375 119.90990826140273 H 0.0 **** 0.06
19600 H 26.02941499675157 55.65191771742977 120.89738759400558 H 0.0 **** 0.06
19601 C 66.26373484291517 79.61297482504011 130.7186524663114 C 0.0 **** -0.24
19602 H 65.65387800289353 78.88158183569834 130.18819567497727 H 0.0 **** 0.06
19603 H 66.27679877384863 80.54778328099695 130.1587927345651 H 0.0 **** 0.06
19604 H 67.28125962914251 79.23344789419053 130.81708083022096 H 0.0 **** 0.06
19605 H 65.84312000096246 79.78661862337594 131.70916317298946 H 0.0 **** 0.06
19606 C 114.1186721025502 91.2392220014037 48.63489910426782 C 0.0 **** -0.24
19607 H 113.94985531787599 91.51724379687761 47.59480621642234 H 0.0 **** 0.06
19608 H 113.33350638820492 90.55680062890217 48.96111738854259 H 0.0 **** 0.06
19609 H 114.10337525627928 92.13536404569786 49.256310391861206 H 0.0 **** 0.06
19610 H 115.088348070066 90.74980001469292 48.728039470092625 H 0.0 **** 0.06
19611 C 11.00361289474364 82.43228060600802 118.76567056276383 C 0.0 **** -0.24
19612 H 10.913844389285686 81.35035038370648 118.86169173285444 H 0.0 **** 0.06
19613 H 11.70107625964846 82.6686998160599 117.96171452260582 H 0.0 **** 0.06
19614 H 11.37379892963142 82.84944402334347 119.70231482136799 H 0.0 **** 0.06
19615 H 10.027455971596254 82.85955212027795 118.53789404803335 H 0.0 **** 0.06
19616 C 83.30917966315086 86.55775810572783 44.54313978021827 C 0.0 **** -0.24
19617 H 83.58357075806194 87.60420291762391 44.41042111577548 H 0.0 **** 0.06
19618 H 82.52451118320346 86.48009434378373 45.29641213814915 H 0.0 **** 0.06
19619 H 84.18204313251493 85.99131076184473 44.86822785865104 H 0.0 **** 0.06
19620 H 82.9465884523473 86.15442555365608 43.59754634390856 H 0.0 **** 0.06
19621 C 64.53652288259124 76.19737808787048 38.11641964513106 C 0.0 **** -0.24
19622 H 64.89916884741189 75.51476299155027 37.34858050482907 H 0.0 **** 0.06
19623 H 65.19533276338241 77.06391589109052 38.1740152496061 H 0.0 **** 0.06
19624 H 64.5229532046908 75.68637632468199 39.079878836319466 H 0.0 **** 0.06
19625 H 63.52729784062926 76.52402867371964 37.86421591697672 H 0.0 **** 0.06
19626 C 62.59077712419972 66.87662383185602 6.331531014925414 C 0.0 **** -0.24
19627 H 63.43772083419711 67.07646964219646 5.674593031587438 H 0.0 **** 0.06
19628 H 62.147214982499094 67.819817698544 6.649232731710633 H 0.0 **** 0.06
19629 H 62.932386432146416 66.32262792189516 7.205084106528428 H 0.0 **** 0.06
19630 H 61.84675163550904 66.28779747167175 5.794973409471947 H 0.0 **** 0.06
19631 C 110.57057778980797 130.6869862855211 32.28165216943692 C 0.0 **** -0.24
19632 H 110.65768160548612 131.54244810568977 31.61097003048723 H 0.0 **** 0.06
19633 H 110.25574444061016 131.02838990286196 33.26756594841083 H 0.0 **** 0.06
19634 H 111.53798296381325 130.18856665084812 32.36070723479543 H 0.0 **** 0.06
19635 H 109.8335956679228 129.98796173879364 31.885265301096894 H 0.0 **** 0.06
19636 C 13.888982208631262 123.3019375545943 79.89409344809144 C 0.0 **** -0.24
19637 H 14.30296044094419 123.17695124227521 80.89470422217533 H 0.0 **** 0.06
19638 H 14.008688189599127 122.3742995878589 79.33361793637818 H 0.0 **** 0.06
19639 H 14.413962369491884 124.10786024416902 79.3818231218815 H 0.0 **** 0.06
19640 H 12.829942294607292 123.54767870119127 79.96762016099325 H 0.0 **** 0.06
19641 C 30.620995023712936 76.60994120965553 62.820071272034454 C 0.0 **** -0.24
19642 H 29.979758758905376 75.74898103588922 63.006530520225624 H 0.0 **** 0.06
19643 H 31.33490523679754 76.36808670976154 62.03333559665987 H 0.0 **** 0.06
19644 H 31.158904482298624 76.86618314509501 63.73300553817114 H 0.0 **** 0.06
19645 H 30.009526614845612 77.45672483847981 62.50919459012141 H 0.0 **** 0.06
19646 C 3.703350031198312 115.24548003488563 76.81730318504097 C 0.0 **** -0.24
19647 H 3.801799267877044 114.19284221382519 76.55127713775212 H 0.0 **** 0.06
19648 H 2.849495867306075 115.373085629149 77.48279575143695 H 0.0 **** 0.06
19649 H 3.5521467215332336 115.83550331863816 75.91380691594216 H 0.0 **** 0.06
19650 H 4.610951146653093 115.57918453404135 77.3218922078834 H 0.0 **** 0.06
19651 C 46.57820840449 43.70085960842624 74.50242642323573 C 0.0 **** -0.24
19652 H 45.72645084723865 43.05273296984103 74.70497100767601 H 0.0 **** 0.06
19653 H 47.1004534463151 43.91621375462924 75.43483738430011 H 0.0 **** 0.06
19654 H 46.22811642463566 44.632995664659546 74.05878866945554 H 0.0 **** 0.06
19655 H 47.25827804382973 43.202519869995655 73.81196626453894 H 0.0 **** 0.06
19656 C 116.65112012349476 53.21331309027802 62.13178742385098 C 0.0 **** -0.24
19657 H 116.87716593856315 53.37641328292173 63.185439204032306 H 0.0 **** 0.06
19658 H 117.55373340560526 53.36200519074298 61.53916580149843 H 0.0 **** 0.06
19659 H 115.88420221077921 53.91865709199955 61.81208097740203 H 0.0 **** 0.06
19660 H 116.28847246359487 52.19418120734892 61.99155745198185 H 0.0 **** 0.06
19661 C 23.401280542312875 46.4642106434105 56.47780543643469 C 0.0 **** -0.24
19662 H 23.042309200576724 45.51284396633023 56.871126580569424 H 0.0 **** 0.06
19663 H 22.632846061337688 46.90907063715163 55.845532941925754 H 0.0 **** 0.06
19664 H 24.303976279303058 46.29579743366509 55.88971622460693 H 0.0 **** 0.06
19665 H 23.626053756825854 47.13673735101226 57.30536466393713 H 0.0 **** 0.06
19666 C 15.061938531371737 5.439978231198495 75.21402298421552 C 0.0 **** -0.24
19667 H 14.352475230213287 4.785652324202033 75.71914853212192 H 0.0 **** 0.06
19668 H 15.948707841913972 4.86923030872714 74.93808372081529 H 0.0 **** 0.06
19669 H 15.345751067097552 6.2533045750944325 75.88232995338976 H 0.0 **** 0.06
19670 H 14.60041838538163 5.852406951224879 74.31591760938667 H 0.0 **** 0.06
19671 C 40.388462671424065 15.137905922521043 129.78483423571865 C 0.0 **** -0.24
19672 H 41.11586321852373 14.556060437768835 129.21781677124207 H 0.0 **** 0.06
19673 H 39.54992000736328 14.498459969623724 130.06321100175165 H 0.0 **** 0.06
19674 H 40.02825341671226 15.963905127734193 129.17319139448043 H 0.0 **** 0.06
19675 H 40.860393657237836 15.529956013230134 130.68550915745135 H 0.0 **** 0.06
19676 C 23.21596663439368 12.336711371687485 8.996733624815477 C 0.0 **** -0.24
19677 H 23.41769118886424 13.325432097788106 9.408170093989725 H 0.0 **** 0.06
19678 H 23.782706663818374 11.590108992557113 9.551360518212931 H 0.0 **** 0.06
19679 H 23.51227517953771 12.313253706315571 7.947976998459097 H 0.0 **** 0.06
19680 H 22.150054466951133 12.12069817375523 9.078593866814344 H 0.0 **** 0.06
19681 C 121.3833858485015 121.63300667183644 105.23926862014184 C 0.0 **** -0.24
19682 H 121.44378952705722 122.72104473032131 105.26799247145567 H 0.0 **** 0.06
19683 H 122.35836946279534 121.22299065181736 104.97201144359843 H 0.0 **** 0.06
19684 H 120.64471445083505 121.32895299839392 104.4977678523228 H 0.0 **** 0.06
19685 H 121.08910638534857 121.2602643177373 106.22090310553904 H 0.0 **** 0.06
19686 C 109.98723866214283 48.39698174448381 26.44578549002125 C 0.0 **** -0.24
19687 H 110.79579674873821 47.96489817426399 25.855035835896217 H 0.0 **** 0.06
19688 H 109.04721494531094 48.29440262657337 25.904500580676768 H 0.0 **** 0.06
19689 H 110.1921901546695 49.45300074992571 26.622949937862586 H 0.0 **** 0.06
19690 H 109.91685869953375 47.875033132255794 27.400711582390215 H 0.0 **** 0.06
19691 C 79.71153072029647 84.80672964392117 20.915698216497447 C 0.0 **** -0.24
19692 H 80.13609793538471 85.545603765174 21.595089976537622 H 0.0 **** 0.06
19693 H 80.50859565665176 84.35625162920817 20.32335323946134 H 0.0 **** 0.06
19694 H 78.99531243164601 85.29218113088488 20.252831953939392 H 0.0 **** 0.06
19695 H 79.20508577461433 84.03178838832099 21.492378474270254 H 0.0 **** 0.06
19696 C 121.32312905006745 40.08755461132675 109.06049781485126 C 0.0 **** -0.24
19697 H 121.63484958023085 39.84534972412745 110.07642082563063 H 0.0 **** 0.06
19698 H 121.81108605930729 39.40939687177966 108.35970999883125 H 0.0 **** 0.06
19699 H 121.60414153949912 41.11401238526066 108.82811062931393 H 0.0 **** 0.06
19700 H 120.2414508612965 39.97934747476732 108.97699922150434 H 0.0 **** 0.06
19701 C 122.90137618902233 73.60152063919372 59.75287792424106 C 0.0 **** -0.24
19702 H 122.7663510777223 73.91120533409429 58.71692617071545 H 0.0 **** 0.06
19703 H 123.91778829921984 73.83687418958675 60.071810073303055 H 0.0 **** 0.06
19704 H 122.73403108990937 72.5273818139849 59.8355029796129 H 0.0 **** 0.06
19705 H 122.18939420320044 74.1301659836293 60.38653099179518 H 0.0 **** 0.06
19706 C 14.120470779648656 19.652176852495813 116.42419742413261 C 0.0 **** -0.24
19707 H 14.570845506521266 20.24792085653155 117.21861809270948 H 0.0 **** 0.06
19708 H 13.037690885934694 19.636291426202206 116.55148790866343 H 0.0 **** 0.06
19709 H 14.507519605560844 18.633926004598493 116.47100476981296 H 0.0 **** 0.06
19710 H 14.366997332450751 20.090821462528538 115.45781604126381 H 0.0 **** 0.06
19711 C 100.28365194722926 22.759410648634017 54.14003912103283 C 0.0 **** -0.24
19712 H 99.56038645937244 22.959549472873448 54.930590167346736 H 0.0 **** 0.06
19713 H 99.82671672998066 22.963974986407507 53.17142766636488 H 0.0 **** 0.06
19714 H 100.59068756636927 21.714770587052897 54.184667679675044 H 0.0 **** 0.06
19715 H 101.15479557326896 23.40020197061508 54.27389985517539 H 0.0 **** 0.06
19716 C 78.28214629015012 73.09289776483556 86.29625625768048 C 0.0 **** -0.24
19717 H 77.21032599948285 73.00352076418545 86.47823863798345 H 0.0 **** 0.06
19718 H 78.45116256625167 73.39681279490253 85.26306235508741 H 0.0 **** 0.06
19719 H 78.7621289732178 72.13026036987542 86.47574833225653 H 0.0 **** 0.06
19720 H 78.70326751355225 73.83918511596495 86.96965699649633 H 0.0 **** 0.06
19721 C 112.08729029691845 127.1178099293238 71.65879661326 C 0.0 **** -0.24
19722 H 111.3297991615236 126.48574243582051 72.12266982250347 H 0.0 **** 0.06
19723 H 111.82082557314517 127.29936830609952 70.61649305720803 H 0.0 **** 0.06
19724 H 113.0550861325142 126.6184964863467 71.70441208756725 H 0.0 **** 0.06
19725 H 112.14334576323887 128.06740350216737 72.19064365894423 H 0.0 **** 0.06
19726 C 40.057435858275866 50.26876686262713 32.875492625091596 C 0.0 **** -0.24
19727 H 39.4305882610803 49.37981369933283 32.8048467717779 H 0.0 **** 0.06
19728 H 40.4243815110799 50.37521602175727 33.896569978061024 H 0.0 **** 0.06
19729 H 39.471453610086584 51.14843493426625 32.60696995390035 H 0.0 **** 0.06
19730 H 40.902743416203535 50.173214702548734 32.19384726364433 H 0.0 **** 0.06
19731 C 117.9196252970861 108.53987259138518 31.06353866605256 C 0.0 **** -0.24
19732 H 117.20030105238828 109.3563351885014 31.117924935191937 H 0.0 **** 0.06
19733 H 117.551783709864 107.69170325374856 31.64090839886498 H 0.0 **** 0.06
19734 H 118.87559375721473 108.87009677573018 31.47170142807206 H 0.0 **** 0.06
19735 H 118.05252955169222 108.24141082918545 30.023330733513838 H 0.0 **** 0.06
19736 C 44.06136107937573 94.23531024000881 49.94001627335169 C 0.0 **** -0.24
19737 H 44.807782219975024 95.02757606019902 49.992464261591266 H 0.0 **** 0.06
19738 H 43.464085073709896 94.23854641771152 50.8524517155395 H 0.0 **** 0.06
19739 H 44.56073085123461 93.27217632303733 49.83592812118465 H 0.0 **** 0.06
19740 H 43.412553597594155 94.40317144899602 49.08091273793863 H 0.0 **** 0.06
19741 C 64.8783890150712 128.11591570505212 116.15437825685308 C 0.0 **** -0.24
19742 H 65.02023378194613 129.01396217545417 115.55445827906976 H 0.0 **** 0.06
19743 H 65.11803794713097 128.33280097689658 117.19509560931385 H 0.0 **** 0.06
19744 H 65.53526613969649 127.32672931801912 115.78703533375017 H 0.0 **** 0.06
19745 H 63.84163016003447 127.78911548735272 116.07941080881085 H 0.0 **** 0.06
19746 C 35.051371426547206 65.87622987788001 116.43425941513448 C 0.0 **** -0.24
19747 H 36.06893543351342 65.97072383083417 116.05598197956908 H 0.0 **** 0.06
19748 H 34.65349043666393 64.89710774658914 116.16821050790503 H 0.0 **** 0.06
19749 H 34.42682024879335 66.65428409734147 115.99445722108203 H 0.0 **** 0.06
19750 H 35.05612685058222 65.98494095594236 117.51903625112425 H 0.0 **** 0.06
19751 C 11.32569466565377 40.69766565251454 61.360218974376025 C 0.0 **** -0.24
19752 H 11.559438264756068 41.73817984008635 61.58546910576358 H 0.0 **** 0.06
19753 H 10.416112361968999 40.65175778433657 60.761998341096515 H 0.0 **** 0.06
19754 H 11.177838139515984 40.14908639595884 62.29043761366762 H 0.0 **** 0.06
19755 H 12.150974087249324 40.25350531108597 60.80304846522813 H 0.0 **** 0.06
19756 C 130.20055060139492 3.448793005734103 26.375247363394635 C 0.0 **** -0.24
19757 H 129.59216461666537 2.5723866953055676 26.153664650792848 H 0.0 **** 0.06
19758 H 130.5277117060092 3.908764440359107 25.442322710280678 H 0.0 **** 0.06
19759 H 131.0715206260242 3.1479475803628816 26.958081606113637 H 0.0 **** 0.06
19760 H 129.61130840011884 4.164754719668281 26.946828357748927 H 0.0 **** 0.06
19761 C 126.161332166286 22.161715628688768 108.07476784470214 C 0.0 **** -0.24
19762 H 125.59564681915474 22.58568882330504 107.245472810769 H 0.0 **** 0.06
19763 H 125.78732822256183 21.16154148615645 108.29573222529558 H 0.0 **** 0.06
19764 H 126.04713094353811 22.79518384106661 108.95419751949606 H 0.0 **** 0.06
19765 H 127.21557419401027 22.10330375039127 107.8029162218341 H 0.0 **** 0.06
19766 C 7.083598608856036 130.5093524036502 23.250058042863913 C 0.0 **** -0.24
19767 H 8.038653532315962 131.03399523242135 23.220656121352135 H 0.0 **** 0.06
19768 H 7.029108759814932 129.80552627124487 22.418380094916017 H 0.0 **** 0.06
19769 H 6.270255641411467 131.23071171377558 23.169618954945406 H 0.0 **** 0.06
19770 H 6.996403226454049 129.96619480152225 24.191766240173564 H 0.0 **** 0.06
19771 C 102.601429280888 120.15298216845076 107.27847424316906 C 0.0 **** -0.24
19772 H 101.59670165974433 120.5741829366763 107.23303376160356 H 0.0 **** 0.06
19773 H 102.64464659831458 119.40174884015713 108.06736222341652 H 0.0 **** 0.06
19774 H 103.31752861671634 120.94671602352349 107.49224000480552 H 0.0 **** 0.06
19775 H 102.84450247219195 119.69140851654899 106.3211688147594 H 0.0 **** 0.06
19776 C 21.215566139161524 3.458425158264788 2.4130986853951413 C 0.0 **** -0.24
19777 H 20.858682716631733 4.436131435249166 2.0888531834188484 H 0.0 **** 0.06
19778 H 21.898756066128612 3.054924013618887 1.6649784520365074 H 0.0 **** 0.06
19779 H 20.36805183747083 2.7836288680341568 2.5328147533995775 H 0.0 **** 0.06
19780 H 21.73600429759972 3.558594655539821 3.364639312457598 H 0.0 **** 0.06
19781 C 56.8389304259959 117.5047946916668 34.60821238498792 C 0.0 **** -0.24
19782 H 56.875934263886876 118.35173657508011 35.29379364586538 H 0.0 **** 0.06
19783 H 56.21309840918073 116.72067775010873 35.03384762104338 H 0.0 **** 0.06
19784 H 57.84758589648827 117.12101508859189 34.45303872719768 H 0.0 **** 0.06
19785 H 56.42180204068957 117.82630813735602 33.65470024697254 H 0.0 **** 0.06
19786 C 41.196305225236046 92.5233875372582 24.326664556626184 C 0.0 **** -0.24
19787 H 41.381654784822246 93.27728852994777 23.560875184479784 H 0.0 **** 0.06
19788 H 40.28477734880906 91.97705274222015 24.085387407652632 H 0.0 **** 0.06
19789 H 41.0845692334573 93.0105925850292 25.295093055338697 H 0.0 **** 0.06
19790 H 42.03757039125216 91.83065766693699 24.363688407577996 H 0.0 **** 0.06
19791 C 47.85665928331646 79.67602071954457 28.06996146304317 C 0.0 **** -0.24
19792 H 48.8970051070833 79.4803937314675 28.329919386165614 H 0.0 **** 0.06
19793 H 47.73925510178908 80.72747171011261 27.807064978573578 H 0.0 **** 0.06
19794 H 47.21989263874208 79.44070978896659 28.922450434674715 H 0.0 **** 0.06
19795 H 47.57242481901994 79.05433423626394 27.221337212411413 H 0.0 **** 0.06
19796 C 19.9261327045009 5.9227269417507955 26.293168469243923 C 0.0 **** -0.24
19797 H 19.992082501270033 6.05819718130391 27.372434829055997 H 0.0 **** 0.06
19798 H 19.13193298980076 6.554602271976876 25.895942043356342 H 0.0 **** 0.06
19799 H 19.70450605009688 4.878647569886795 26.071717865730434 H 0.0 **** 0.06
19800 H 20.874854717056678 6.19818487179586 25.832777406585294 H 0.0 **** 0.06
19801 C 122.1793289466152 32.26260913124527 119.55150654908007 C 0.0 **** -0.24
19802 H 122.05468518213156 33.33733912975851 119.69165629233197 H 0.0 **** 0.06
19803 H 122.43925151993231 32.05970306273791 118.51249506571102 H 0.0 **** 0.06
19804 H 121.24806771007913 31.754586831751155 119.79976097204607 H 0.0 **** 0.06
19805 H 122.97499721862776 31.902213402626494 120.2036310747815 H 0.0 **** 0.06
19806 C 45.884262959492105 20.26676205653439 59.86014517510266 C 0.0 **** -0.24
19807 H 46.21839836646427 20.579028820586593 60.84969784301762 H 0.0 **** 0.06
19808 H 45.23055751619739 19.399425285357275 59.95612240320449 H 0.0 **** 0.06
19809 H 46.7488221739938 20.00485162902661 59.25100421699483 H 0.0 **** 0.06
19810 H 45.338299059627104 21.082199435575774 59.38670065028764 H 0.0 **** 0.06
19811 C 23.450056685092 65.1132922894788 26.998015323764008 C 0.0 **** -0.24
19812 H 23.693533877345622 65.28155239176445 28.04731170381291 H 0.0 **** 0.06
19813 H 24.182551688469097 64.43525261706914 26.559352838030776 H 0.0 **** 0.06
19814 H 23.467681122483782 66.06253175304622 26.464121893494024 H 0.0 **** 0.06
19815 H 22.456130423762332 64.67263374503347 26.9228416413724 H 0.0 **** 0.06
19816 C 119.58528362933308 13.86446920814501 38.66150806049393 C 0.0 **** -0.24
19817 H 120.19905175657152 13.99949190631878 39.55172432008998 H 0.0 **** 0.06
19818 H 118.88388094488249 13.045457876060539 38.825038667119 H 0.0 **** 0.06
19819 H 120.2262958478126 13.629498742133478 37.8120160561272 H 0.0 **** 0.06
19820 H 119.03292174318568 14.78134590380239 38.45804826409532 H 0.0 **** 0.06
19821 C 121.9056477286561 69.89532084780933 67.17477319473133 C 0.0 **** -0.24
19822 H 122.5927992520045 70.64016061826979 66.77484707289778 H 0.0 **** 0.06
19823 H 122.31109150698842 69.48675112881327 68.1009554955397 H 0.0 **** 0.06
19824 H 121.77771240192723 69.09159751031231 66.4485818235706 H 0.0 **** 0.06
19825 H 120.94095431101266 70.36141342505874 67.37509239875615 H 0.0 **** 0.06
19826 C 117.79487304840275 59.72462544276007 104.05827673389304 C 0.0 **** -0.24
19827 H 117.4965613366842 60.345760768669834 103.21332138871061 H 0.0 **** 0.06
19828 H 118.85682082349075 59.49131003252863 103.98058299059453 H 0.0 **** 0.06
19829 H 117.21768824727981 58.80049308319708 104.05109987322389 H 0.0 **** 0.06
19830 H 117.60804987252118 60.26228528701975 104.98831786755952 H 0.0 **** 0.06
19831 C 102.22426306276932 109.46833762191217 83.69453606491761 C 0.0 **** -0.24
19832 H 102.86499105250988 108.6468141617139 83.37399227449578 H 0.0 **** 0.06
19833 H 101.23233844065876 109.3451265153793 83.26104791552387 H 0.0 **** 0.06
19834 H 102.6530154291215 110.4139913520336 83.36140853007025 H 0.0 **** 0.06
19835 H 102.14961121456557 109.46671343501235 84.78142928260198 H 0.0 **** 0.06
19836 C 27.156493492139305 31.836848862560174 8.512816291587342 C 0.0 **** -0.24
19837 H 27.311928002934195 30.79449846834362 8.234495902530284 H 0.0 **** 0.06
19838 H 28.019527688435886 32.194846239932644 9.074976744210915 H 0.0 **** 0.06
19839 H 26.261707620899415 31.917943808387747 9.130339043572235 H 0.0 **** 0.06
19840 H 27.032658501001805 32.43882919359575 7.612984636741544 H 0.0 **** 0.06
19841 C 8.170369326636546 68.05257227014634 92.14809741717136 C 0.0 **** -0.24
19842 H 8.61076974197448 67.08570555827623 92.39365547574056 H 0.0 **** 0.06
19843 H 7.095339750353105 68.01743580757685 92.32520845392173 H 0.0 **** 0.06
19844 H 8.360030001182281 68.28188260983946 91.10007547118732 H 0.0 **** 0.06
19845 H 8.61682757210275 68.82378184818269 92.77601564946343 H 0.0 **** 0.06
19846 C 97.50502633355514 88.4453924270872 54.260781109779145 C 0.0 **** -0.24
19847 H 97.67900495373983 88.7997712458581 55.276627823172035 H 0.0 **** 0.06
19848 H 96.46596867070204 88.62645480859697 53.98666794572779 H 0.0 **** 0.06
19849 H 97.71444466478282 87.37724362479554 54.208411873429725 H 0.0 **** 0.06
19850 H 98.16186244793217 88.97871978665916 53.57321529845464 H 0.0 **** 0.06
19851 C 114.0548800315441 102.22044418966917 15.319050041894684 C 0.0 **** -0.24
19852 H 113.88549043435957 101.621970213743 16.21361556700174 H 0.0 **** 0.06
19853 H 113.6166671036887 103.20964989951577 15.455255840284536 H 0.0 **** 0.06
19854 H 113.59073883465551 101.7319416847782 14.461881003274243 H 0.0 **** 0.06
19855 H 115.12662375347243 102.3182149606398 15.145447757018246 H 0.0 **** 0.06
19856 C 84.28573144465999 29.03386867095486 19.812494053446386 C 0.0 **** -0.24
19857 H 83.30474823174379 28.628071358199648 20.06000355918067 H 0.0 **** 0.06
19858 H 85.03446426772645 28.609925545839147 20.481875015678185 H 0.0 **** 0.06
19859 H 84.26839817762738 30.117936767715918 19.924959123081948 H 0.0 **** 0.06
19860 H 84.53407842448584 28.780061970282304 18.781349797828824 H 0.0 **** 0.06
19861 C 70.53481620554807 78.13246878309141 97.61532107838555 C 0.0 **** -0.24
19862 H 69.91232637862812 78.48726435429941 98.43695299552687 H 0.0 **** 0.06
19863 H 69.99122244195416 78.2402892499901 96.67635085792728 H 0.0 **** 0.06
19864 H 70.78193101865834 77.08356838826633 97.77485672515607 H 0.0 **** 0.06
19865 H 71.45186896472134 78.72067644076859 97.57440056346667 H 0.0 **** 0.06
19866 C 79.55660530176438 41.67951856559148 93.50459514840821 C 0.0 **** -0.24
19867 H 80.2810782707554 41.06521718560259 92.9698800804376 H 0.0 **** 0.06
19868 H 78.91063420341868 41.038508698162985 94.10492937695543 H 0.0 **** 0.06
19869 H 78.9527006229508 42.235395528714974 92.78660247951305 H 0.0 **** 0.06
19870 H 80.0830837156605 42.37807104779631 94.1549522656214 H 0.0 **** 0.06
19871 C 116.56126544587535 2.206534342655118 47.559733651015165 C 0.0 **** -0.24
19872 H 115.6455759871314 1.6588191682594697 47.77949783892416 H 0.0 **** 0.06
19873 H 117.30313454569904 1.5227309683057797 47.14480743286205 H 0.0 **** 0.06
19874 H 116.94859660189849 2.6503359412645295 48.47763466203057 H 0.0 **** 0.06
19875 H 116.34885724500853 2.993987668746172 46.836149155133256 H 0.0 **** 0.06
19876 C 21.810770711165418 65.97652571122349 54.23603835831989 C 0.0 **** -0.24
19877 H 21.572983710075718 67.01578677870963 54.00705299229915 H 0.0 **** 0.06
19878 H 21.377478224892066 65.32858616985531 53.47437017625772 H 0.0 **** 0.06
19879 H 21.400131100992354 65.7168048940956 55.21141143559457 H 0.0 **** 0.06
19880 H 22.893620388306047 65.84770206952894 54.25141977730955 H 0.0 **** 0.06
19881 C 88.34888686205005 127.51397729853176 3.535658721290396 C 0.0 **** -0.24
19882 H 88.36836470713196 128.05097954589135 2.5873630581849127 H 0.0 **** 0.06
19883 H 88.69935983282429 126.49277784251078 3.383458593354007 H 0.0 **** 0.06
19884 H 87.32959299822684 127.49510021542199 3.9211676512780365 H 0.0 **** 0.06
19885 H 88.99879579017839 128.01813338889485 4.2513594474214536 H 0.0 **** 0.06
19886 C 18.3897507336614 52.92617912987397 23.269945480677407 C 0.0 **** -0.24
19887 H 18.20010168457526 52.34169584881134 22.369393967029495 H 0.0 **** 0.06
19888 H 17.696864187141955 52.61935614589211 24.053968698314364 H 0.0 **** 0.06
19889 H 18.246389994798676 53.9845732716374 23.05161997494713 H 0.0 **** 0.06
19890 H 19.41409427958621 52.75863756012588 23.60295989500193 H 0.0 **** 0.06
19891 C 18.524487522128112 32.422661238372996 63.0687493276597 C 0.0 **** -0.24
19892 H 17.81529019179507 31.95955275265706 63.75409748187536 H 0.0 **** 0.06
19893 H 19.541122844729728 32.21697005841207 63.404928256292635 H 0.0 **** 0.06
19894 H 18.359040666664328 33.499948874293466 63.047461481852395 H 0.0 **** 0.06
19895 H 18.383038960990945 32.013345843076166 62.0683650548458 H 0.0 **** 0.06
19896 C 44.5403406548823 76.62138355189002 24.46906462336193 C 0.0 **** -0.24
19897 H 44.91770373355001 75.95546498010793 25.245634695877953 H 0.0 **** 0.06
19898 H 43.4567206920932 76.70243951590814 24.556644285921124 H 0.0 **** 0.06
19899 H 44.79767965090491 76.21965863116776 23.48900431905497 H 0.0 **** 0.06
19900 H 44.990234347687704 77.60725255221246 24.58685450156176 H 0.0 **** 0.06
19901 C 100.29083596947919 0.050114449847626474 30.152619112524462 C 0.0 **** -0.24
19902 H 100.66662186560735 -0.6733859818434667 30.875363531471976 H 0.0 **** 0.06
19903 H 99.24475252306698 -0.16484055474160186 29.933483853019766 H 0.0 **** 0.06
19904 H 100.8755965952235 -0.014347730077105325 29.235196042869802 H 0.0 **** 0.06
19905 H 100.37586566789449 1.0551663550450883 30.56752291624059 H 0.0 **** 0.06
19906 C 81.89194381935562 0.7153406857197524 44.576158710200815 C 0.0 **** -0.24
19907 H 81.7834702830146 1.5683713374829154 43.90585974425963 H 0.0 **** 0.06
19908 H 81.34486410499636 0.907692818790423 45.49929463386539 H 0.0 **** 0.06
19909 H 82.94701883490666 0.5636813909333398 44.80295512231734 H 0.0 **** 0.06
19910 H 81.49084048414284 -0.17742339675572794 44.09526897574577 H 0.0 **** 0.06
19911 C 98.49404705807204 69.74866201419152 97.10065393925262 C 0.0 **** -0.24
19912 H 98.17419404512161 69.28498485276518 98.03402955043448 H 0.0 **** 0.06
19913 H 98.9210197149243 70.72961937234746 97.31126146097223 H 0.0 **** 0.06
19914 H 97.63592776292327 69.85957017696828 96.43834654791411 H 0.0 **** 0.06
19915 H 99.24418630796522 69.12041098867783 96.62127082024386 H 0.0 **** 0.06
19916 C 36.09045247277652 53.88703510377822 77.41744965635357 C 0.0 **** -0.24
19917 H 35.637402040676136 54.86785373117722 77.5615384874288 H 0.0 **** 0.06
19918 H 37.12688274459887 54.00884738041627 77.10467264186295 H 0.0 **** 0.06
19919 H 35.539623663859004 53.342497181058846 76.64994812968823 H 0.0 **** 0.06
19920 H 36.05462563817116 53.329442904219064 78.3537769982955 H 0.0 **** 0.06
19921 C 102.78953944756879 32.27492907450775 17.87418626917342 C 0.0 **** -0.24
19922 H 102.94858993671326 33.02997570339191 17.105121948178123 H 0.0 **** 0.06
19923 H 101.7270343430547 32.03877329648486 17.936938561913543 H 0.0 **** 0.06
19924 H 103.13456816561788 32.657189533381 18.834622923619314 H 0.0 **** 0.06
19925 H 103.34796534488922 31.373777764773337 17.620061642982613 H 0.0 **** 0.06
19926 C 4.865750491192387 64.40121239304139 127.49927198605232 C 0.0 **** -0.24
19927 H 4.4406414142246575 64.78404204663333 126.57169440178964 H 0.0 **** 0.06
19928 H 4.150800874564368 64.53812132693092 128.3096165871955 H 0.0 **** 0.06
19929 H 5.784044993682016 64.94278102739135 127.7287194799587 H 0.0 **** 0.06
19930 H 5.089023280122362 63.34066700711371 127.3852843214772 H 0.0 **** 0.06
19931 C 86.85654398164108 100.44909404590983 126.67462027002554 C 0.0 **** -0.24
19932 H 86.19703137966775 101.00830108312097 127.33769420569573 H 0.0 **** 0.06
19933 H 87.87740546101867 100.49381826615952 127.05470721126628 H 0.0 **** 0.06
19934 H 86.82100151605606 100.8840571008165 125.67526827855758 H 0.0 **** 0.06
19935 H 86.53114386331796 99.4097969411959 126.62999117737107 H 0.0 **** 0.06
19936 C 104.8506528514918 0.644055137547582 32.76877869911369 C 0.0 **** -0.24
19937 H 103.96850514413123 0.12193946599586525 32.3992342828299 H 0.0 **** 0.06
19938 H 105.74431019703857 0.21180941735661918 32.315909189496715 H 0.0 **** 0.06
19939 H 104.90598731884636 0.5412084195825742 33.85298355844407 H 0.0 **** 0.06
19940 H 104.78496616954666 1.700111905210349 32.50640901706404 H 0.0 **** 0.06
19941 C 103.5646471272259 120.63384416441315 125.48531945608534 C 0.0 **** -0.24
19942 H 104.22879365814305 121.45023275142348 125.20132027013886 H 0.0 **** 0.06
19943 H 103.99835145044119 119.68523917945075 125.16604416413611 H 0.0 **** 0.06
19944 H 102.59563406336366 120.77067885104708 125.00542632742645 H 0.0 **** 0.06
19945 H 103.43687821843281 120.6298951928596 126.56784704789959 H 0.0 **** 0.06
19946 C 76.92808160343985 104.67273927203368 47.54666168731322 C 0.0 **** -0.24
19947 H 76.78404653531952 104.54939497514198 48.61996851415941 H 0.0 **** 0.06
19948 H 76.92158427712745 105.73500326151482 47.30023009216609 H 0.0 **** 0.06
19949 H 76.12330237673754 104.16931580691741 47.01188264486959 H 0.0 **** 0.06
19950 H 77.88506164554536 104.2385556198045 47.25668540872502 H 0.0 **** 0.06
19951 C 52.4266882068294 69.6171166559212 42.70691115778459 C 0.0 **** -0.24
19952 H 51.627258260760016 70.16296676994085 42.205917265351815 H 0.0 **** 0.06
19953 H 52.99168223468928 69.0447606229801 41.97124425977813 H 0.0 **** 0.06
19954 H 51.99688531990188 68.93893989559743 43.44384345358401 H 0.0 **** 0.06
19955 H 53.09040308080495 70.32262455441227 43.206428547514236 H 0.0 **** 0.06
19956 C 84.59084425739815 90.64129744735948 18.109599269485884 C 0.0 **** -0.24
19957 H 84.05205386912792 90.45868224778609 17.179075677516465 H 0.0 **** 0.06
19958 H 84.13841084773645 90.05692638199594 18.911428424677496 H 0.0 **** 0.06
19959 H 84.5380077475267 91.70192220816632 18.357889342277304 H 0.0 **** 0.06
19960 H 85.63308204328558 90.34829365605245 17.988874100944997 H 0.0 **** 0.06
19961 C 75.10725059885769 78.33191873384976 110.51237577495607 C 0.0 **** -0.24
19962 H 74.06316831070029 78.6247935320175 110.62087910601797 H 0.0 **** 0.06
19963 H 75.19132596541266 77.24874335361956 110.59431989802525 H 0.0 **** 0.06
19964 H 75.69938197211135 78.80347477680534 111.29616641065637 H 0.0 **** 0.06
19965 H 75.47385490074569 78.65248969466288 109.53711374573055 H 0.0 **** 0.06
19966 C 82.02429397972885 111.70599205639361 75.06233842034129 C 0.0 **** -0.24
19967 H 81.01532947969505 111.5447978438476 74.68003533686482 H 0.0 **** 0.06
19968 H 82.6759471952429 110.90441381877366 74.71509806277822 H 0.0 **** 0.06
19969 H 82.00271975051665 111.71275369067922 76.15225599566217 H 0.0 **** 0.06
19970 H 82.39986437135359 112.66310569420138 74.7006246844408 H 0.0 **** 0.06
19971 C 27.07541636187429 77.45257204265198 105.19823779290459 C 0.0 **** -0.24
19972 H 27.090793008647125 76.39517130856024 105.46215389571984 H 0.0 **** 0.06
19973 H 27.928741369532986 77.9531771367974 105.6551890059173 H 0.0 **** 0.06
19974 H 26.151234528568068 77.90392738637007 105.56029277206295 H 0.0 **** 0.06
19975 H 27.130337044759955 77.5567715370096 104.11493145774534 H 0.0 **** 0.06
19976 C 66.22915838769723 125.59480979678648 112.36298699301693 C 0.0 **** -0.24
19977 H 65.38014698600443 125.77203938889687 113.02265413737611 H 0.0 **** 0.06
19978 H 66.8923470022944 126.46024771871794 112.38468030680252 H 0.0 **** 0.06
19979 H 65.87215727498369 125.43642617243387 111.34553611827589 H 0.0 **** 0.06
19980 H 66.77222734772693 124.71186070545974 112.6986794514272 H 0.0 **** 0.06
19981 C 46.20210641257415 118.10220066776361 73.63088798920055 C 0.0 **** -0.24
19982 H 46.908818689340535 118.73865047679448 73.09817335743116 H 0.0 **** 0.06
19983 H 45.37071760094386 117.85297025687075 72.97163590801651 H 0.0 **** 0.06
19984 H 45.82600205471266 118.63085423617954 74.50730480695913 H 0.0 **** 0.06
19985 H 46.703787727495296 117.18740172379788 73.94662716526554 H 0.0 **** 0.06
19986 C 80.86943927101584 74.44410699423813 120.73334710746201 C 0.0 **** -0.24
19987 H 80.94198079850986 75.04518513993818 121.63953430583791 H 0.0 **** 0.06
19988 H 81.63735111720428 74.75956573357342 120.02646119446086 H 0.0 **** 0.06
19989 H 79.88500054033551 74.57849265958694 120.28636580488029 H 0.0 **** 0.06
19990 H 81.01488296931723 73.39279901970119 120.98295715693808 H 0.0 **** 0.06
19991 C 95.03194328874467 8.475451189877504 109.52134829967652 C 0.0 **** -0.24
19992 H 95.68408383202153 7.606776651569078 109.61369950566895 H 0.0 **** 0.06
19993 H 95.56171631310917 9.271756417633753 108.9972785812843 H 0.0 **** 0.06
19994 H 94.74460774898304 8.821698736834549 110.51351074735292 H 0.0 **** 0.06
19995 H 94.13942958548832 8.201331724266083 108.95831960372247 H 0.0 **** 0.06
19996 C 60.496299781296315 17.106352953414678 93.33091578656295 C 0.0 **** -0.24
19997 H 61.26030367897502 17.837097551858832 93.06583308669268 H 0.0 **** 0.06
19998 H 59.638823744314394 17.620146399170046 93.76647365722958 H 0.0 **** 0.06
19999 H 60.90477099129282 16.401593499118256 94.05541621476547 H 0.0 **** 0.06
20000 H 60.182330030019585 16.56842122127376 92.43717710051193 H 0.0 **** 0.06
20001 C 34.6133941569293 17.893503659418826 30.518616121384525 C 0.0 **** -0.24
20002 H 35.215943771717264 18.198355883779897 29.662680036127313 H 0.0 **** 0.06
20003 H 35.21961614088977 17.288326435946573 31.191766056655155 H 0.0 **** 0.06
20004 H 33.76127258905305 17.3084058248441 30.17187434494855 H 0.0 **** 0.06
20005 H 34.256335714135204 18.778478201497506 31.045205895687047 H 0.0 **** 0.06
20006 C 115.79192869979468 80.41521282085915 102.9285663935891 C 0.0 **** -0.24
20007 H 115.05051910462747 80.43754211827803 102.12931065583065 H 0.0 **** 0.06
20008 H 116.7374887891168 80.81266563784851 102.5586205992925 H 0.0 **** 0.06
20009 H 115.9345595953888 79.38656120500212 103.26219319709007 H 0.0 **** 0.06
20010 H 115.44395147833212 81.02334724187835 103.76396862526505 H 0.0 **** 0.06
20011 C 6.222237948632767 60.67059874780716 83.79398434758679 C 0.0 **** -0.24
20012 H 6.755539085317935 61.19650515428059 84.58543856539592 H 0.0 **** 0.06
20013 H 5.510973922600272 59.97368081707576 84.23649684901409 H 0.0 **** 0.06
20014 H 6.934888774304511 60.122364977964395 83.17809151233854 H 0.0 **** 0.06
20015 H 5.687624783889817 61.391255851770836 83.17594671301526 H 0.0 **** 0.06
20016 C 5.687416593537904 32.72244947763116 94.4301126095647 C 0.0 **** -0.24
20017 H 5.413035776733892 32.11938554740874 93.56349814004915 H 0.0 **** 0.06
20018 H 6.763285424547519 32.65466970290001 94.59347927678974 H 0.0 **** 0.06
20019 H 5.161029050330569 32.35381907368901 95.31021272790389 H 0.0 **** 0.06
20020 H 5.4107925924976 33.76169889468443 94.25049824187286 H 0.0 **** 0.06
20021 C 108.32049728800044 114.22904135621347 63.658125046990165 C 0.0 **** -0.24
20022 H 107.97260933438545 114.81417110469356 62.80711764888335 H 0.0 **** 0.06
20023 H 107.48844576586995 114.04728632053785 64.33844765113436 H 0.0 **** 0.06
20024 H 109.10431471313092 114.77775587458079 64.17961718728037 H 0.0 **** 0.06
20025 H 108.71752970628773 113.27616286667698 63.305721290398196 H 0.0 **** 0.06
20026 C 52.53327836661191 71.30541178816688 53.05521778733373 C 0.0 **** -0.24
20027 H 51.723719778482035 71.49999589350617 53.758947429527254 H 0.0 **** 0.06
20028 H 53.46767022449211 71.17909331877755 53.601945289517985 H 0.0 **** 0.06
20029 H 52.62424551610644 72.145704268369 52.36670706666226 H 0.0 **** 0.06
20030 H 52.314609114454925 70.39758801458174 52.49279069507335 H 0.0 **** 0.06
20031 C 13.229134208038374 88.93678150461113 56.984763270058494 C 0.0 **** -0.24
20032 H 13.704874604463441 89.5569631652245 57.74449562767944 H 0.0 **** 0.06
20033 H 13.82844270090294 88.95447723579228 56.074292688414374 H 0.0 **** 0.06
20034 H 12.232194836561973 89.32269936075387 56.77246217300126 H 0.0 **** 0.06
20035 H 13.152887764380068 87.91256007835938 57.34933479949012 H 0.0 **** 0.06
20036 C 89.86949400940098 106.06643251894558 6.4778568177789 C 0.0 **** -0.24
20037 H 89.62509868149071 105.17994082175572 5.894248423849717 H 0.0 **** 0.06
20038 H 89.18570913850989 106.87421574385593 6.215439157705532 H 0.0 **** 0.06
20039 H 90.89383444285022 106.3731606156028 6.262610193191051 H 0.0 **** 0.06
20040 H 89.77422065494628 105.83947569129147 7.5394193558979055 H 0.0 **** 0.06
20041 C 106.42309272052955 57.954913940553595 60.170559168007955 C 0.0 **** -0.24
20042 H 106.10764977267729 58.96115430720069 59.89265341898469 H 0.0 **** 0.06
20043 H 105.56365996965967 57.39386092577381 60.53708244279339 H 0.0 **** 0.06
20044 H 107.17875833476842 58.014798208843516 60.95361140502345 H 0.0 **** 0.06
20045 H 106.8421141302345 57.45216780050151 59.29963564902698 H 0.0 **** 0.06
20046 C 92.1695267982715 5.3010675880363465 43.69195755136843 C 0.0 **** -0.24
20047 H 91.8734177586039 6.153485510556209 44.305233770082225 H 0.0 **** 0.06
20048 H 93.20387931378617 5.426705203822337 43.372253750361836 H 0.0 **** 0.06
20049 H 91.52233716922429 5.242051741113414 42.81739301226895 H 0.0 **** 0.06
20050 H 92.0773855264526 4.38534581950438 44.275142808853445 H 0.0 **** 0.06
20051 C 1.0832132865840833 47.10840924834886 54.07994594491065 C 0.0 **** -0.24
20052 H 0.10762235838629408 46.91463299273073 53.63445458055607 H 0.0 **** 0.06
20053 H 1.613986536633604 47.851476714491156 53.4836330712364 H 0.0 **** 0.06
20054 H 1.6604006806911968 46.18418118636882 54.10615027848199 H 0.0 **** 0.06
20055 H 0.9507807161428445 47.483496409260596 55.09414101191122 H 0.0 **** 0.06
20056 C 89.88558299278958 111.81134434123186 48.176057009266486 C 0.0 **** -0.24
20057 H 89.03991856181972 112.43648861250898 47.88750572750817 H 0.0 **** 0.06
20058 H 89.68925530271645 110.77895225164107 47.88520218310806 H 0.0 **** 0.06
20059 H 90.024194502194 111.8640218079262 49.25557512461836 H 0.0 **** 0.06
20060 H 90.78705766733015 112.16477139063348 47.67569894581473 H 0.0 **** 0.06
20061 C 110.92243226688096 75.57587792471415 91.86744626176525 C 0.0 **** -0.24
20062 H 111.25963021553908 74.99926370443126 91.00620933525974 H 0.0 **** 0.06
20063 H 111.7831827821092 75.86774499465525 92.46890417250799 H 0.0 **** 0.06
20064 H 110.24831647019901 74.96658358582303 92.47056303711403 H 0.0 **** 0.06
20065 H 110.3981213100664 76.46798151903869 91.52511651116706 H 0.0 **** 0.06
20066 C 8.060010798647632 37.81902519687129 31.466335467306067 C 0.0 **** -0.24
20067 H 8.531918705108193 37.48181759425474 30.543924288694456 H 0.0 **** 0.06
20068 H 7.264889440633571 37.125859955542 31.74192478907642 H 0.0 **** 0.06
20069 H 7.640067505729299 38.814219307484606 31.317312545565812 H 0.0 **** 0.06
20070 H 8.803370005552395 37.85467466103865 32.26349840116791 H 0.0 **** 0.06
20071 C 85.84505234189567 0.1662666318658239 54.67789083814239 C 0.0 **** -0.24
20072 H 85.94330998179402 0.7828625337008077 55.57147094784108 H 0.0 **** 0.06
20073 H 84.92054674794406 0.42286437167854274 54.15994343095804 H 0.0 **** 0.06
20074 H 85.82236845058344 -0.8851796203090316 54.96326893032193 H 0.0 **** 0.06
20075 H 86.6939521604913 0.34552116453875215 54.01787765970681 H 0.0 **** 0.06
20076 C 30.9091277630597 113.78294326101962 120.00765892162593 C 0.0 **** -0.24
20077 H 30.44977702940514 114.32830767650557 120.83195620759625 H 0.0 **** 0.06
20078 H 31.241522802984136 114.48898251135017 119.24612190373398 H 0.0 **** 0.06
20079 H 30.18147487774803 113.09725136391552 119.57571880387627 H 0.0 **** 0.06
20080 H 31.765152902095338 113.21826042194613 120.3782297929821 H 0.0 **** 0.06
20081 C 47.42467311381883 116.47686501490801 90.24716480266343 C 0.0 **** -0.24
20082 H 47.426470640305936 117.53205783794891 90.51965208927749 H 0.0 **** 0.06
20083 H 48.45004631319762 116.13952500106741 90.09425302125464 H 0.0 **** 0.06
20084 H 46.85624047353955 116.33904777891833 89.3273652512899 H 0.0 **** 0.06
20085 H 46.96691172811317 115.89581787549376 91.04840026319047 H 0.0 **** 0.06
20086 C 68.71479274705342 15.453191661267176 9.001892177710701 C 0.0 **** -0.24
20087 H 69.71687647391815 15.634124415028804 8.613925716790504 H 0.0 **** 0.06
20088 H 68.22298446303182 14.691177237090578 8.39718968508744 H 0.0 **** 0.06
20089 H 68.13752315955867 16.377177184379885 8.962179811329122 H 0.0 **** 0.06
20090 H 68.78136550630978 15.110140935338848 10.035168438165485 H 0.0 **** 0.06
20091 C 1.165578338540655 97.68455727961067 109.21743507474257 C 0.0 **** -0.24
20092 H 1.5080888696716102 97.65234890116743 108.18346718886056 H 0.0 **** 0.06
20093 H 0.41621814106491684 96.90888078524297 109.37533612823292 H 0.0 **** 0.06
20094 H 0.728670430138834 98.66094656125335 109.4249992225156 H 0.0 **** 0.06
20095 H 2.010694356517604 97.51469345453178 109.88479456243877 H 0.0 **** 0.06
20096 C 19.327174164874464 30.005676738852628 57.249583105365545 C 0.0 **** -0.24
20097 H 20.319335983661745 29.557436167182743 57.19596604456103 H 0.0 **** 0.06
20098 H 19.422356712184097 31.086800013804037 57.35009783279865 H 0.0 **** 0.06
20099 H 18.793476229643943 29.60446459939763 58.11063348306786 H 0.0 **** 0.06
20100 H 18.774822526068363 29.772337914456955 56.33871253686294 H 0.0 **** 0.06
20101 C 123.31077152319911 118.55305812098703 78.34340454158618 C 0.0 **** -0.24
20102 H 122.93960365501985 117.87797045423628 77.57179416735127 H 0.0 **** 0.06
20103 H 122.76953473736776 118.37427904640697 79.2730879908298 H 0.0 **** 0.06
20104 H 123.15934874567105 119.58469098889373 78.02637896618367 H 0.0 **** 0.06
20105 H 124.37445381200571 118.37312031443625 78.50123317572033 H 0.0 **** 0.06
20106 C 20.89364355667874 45.264121278584845 115.13832031096672 C 0.0 **** -0.24
20107 H 19.884190698669272 45.510183427295814 115.46734128136058 H 0.0 **** 0.06
20108 H 20.84797330672143 44.47490876556177 114.38742062005417 H 0.0 **** 0.06
20109 H 21.47967227691879 44.92117779781874 115.9902801158022 H 0.0 **** 0.06
20110 H 21.361911180427626 46.1490759751219 114.70810169911113 H 0.0 **** 0.06
20111 C 115.22980213837235 127.85883989748818 39.82381523885019 C 0.0 **** -0.24
20112 H 115.2961670257626 128.90234173320894 40.13252241091041 H 0.0 **** 0.06
20113 H 114.55713042888539 127.32426323419641 40.495809382373125 H 0.0 **** 0.06
20114 H 116.22048079152455 127.40515309751918 39.86523519914573 H 0.0 **** 0.06
20115 H 114.84639318224276 127.80471325224669 38.80513456143083 H 0.0 **** 0.06
20116 C 106.41381899607869 28.110976789113053 57.74662535321805 C 0.0 **** -0.24
20117 H 106.45963868446981 29.181299436577582 57.94428764362462 H 0.0 **** 0.06
20118 H 105.45286249828489 27.865728341997702 57.29488288988499 H 0.0 **** 0.06
20119 H 106.5268911301575 27.56350606477669 58.68233362278504 H 0.0 **** 0.06
20120 H 107.21793262700058 27.832982155475662 57.06419161620133 H 0.0 **** 0.06
20121 C 25.87725775210098 79.63036308091276 91.05107848391944 C 0.0 **** -0.24
20122 H 25.267668066046085 78.77250277228924 91.33604797419099 H 0.0 **** 0.06
20123 H 26.878401105417836 79.29119678585411 90.78319094211568 H 0.0 **** 0.06
20124 H 25.940859796074903 80.32586813068292 91.88810536000292 H 0.0 **** 0.06
20125 H 25.42232140242467 80.13067082293043 90.19575363755989 H 0.0 **** 0.06
20126 C 57.09999397498558 57.78308414621446 94.8983863171823 C 0.0 **** -0.24
20127 H 57.672828559301706 56.855707220420044 94.86825160952652 H 0.0 **** 0.06
20128 H 56.501600268148024 57.869401709903684 93.99084801046567 H 0.0 **** 0.06
20129 H 57.782994918048644 58.6293966894568 94.96651281685591 H 0.0 **** 0.06
20130 H 56.442940393043614 57.77474145370073 95.7673807904542 H 0.0 **** 0.06
20131 C 60.990552157444455 111.603739873996 4.107435959105601 C 0.0 **** -0.24
20132 H 60.356844768302494 110.86350434294292 4.5971602118403325 H 0.0 **** 0.06
20133 H 60.40990214843825 112.50344898906779 3.9053431346384286 H 0.0 **** 0.06
20134 H 61.367866168860274 111.19526449818163 3.1699401060070045 H 0.0 **** 0.06
20135 H 61.82908091953354 111.85060018306056 4.759091548712149 H 0.0 **** 0.06
20136 C 6.49975324969553 80.00308180552162 80.4116052295822 C 0.0 **** -0.24
20137 H 5.432980492788925 79.80736388847816 80.52410367403853 H 0.0 **** 0.06
20138 H 6.984890402085327 79.13168285390151 79.97165717775552 H 0.0 **** 0.06
20139 H 6.935568011766563 80.20755657045021 81.38976628891386 H 0.0 **** 0.06
20140 H 6.644145720769426 80.8667115295699 79.76188604025583 H 0.0 **** 0.06
20141 C 88.75284183919285 113.70359355527 117.60882977073152 C 0.0 **** -0.24
20142 H 88.49669349845146 114.27302003135458 118.5014830664785 H 0.0 **** 0.06
20143 H 89.42699032459774 112.88965932153121 117.8780312323716 H 0.0 **** 0.06
20144 H 89.24346087881332 114.358737888897 116.88897538946242 H 0.0 **** 0.06
20145 H 87.84587354519272 113.29307947403043 117.16631976321912 H 0.0 **** 0.06
20146 C 110.89491743863812 75.07874839628256 7.853508330080501 C 0.0 **** -0.24
20147 H 111.0897101982689 76.1061915232571 7.546464591039808 H 0.0 **** 0.06
20148 H 109.83249010928955 74.95856885959682 8.069224832555335 H 0.0 **** 0.06
20149 H 111.47626541077341 74.84978953208272 8.746558067523381 H 0.0 **** 0.06
20150 H 111.18130615977958 74.39954812600006 7.050000389433421 H 0.0 **** 0.06
20151 C 5.696859244391135 84.27805288772089 39.08258611810095 C 0.0 **** -0.24
20152 H 6.296422358533064 83.97539972137145 39.94099953487273 H 0.0 **** 0.06
20153 H 5.867817521445282 85.33498173272537 38.87576443260275 H 0.0 **** 0.06
20154 H 4.64147446091858 84.11605141284787 39.30091140464026 H 0.0 **** 0.06
20155 H 5.983621052876845 83.68679785961163 38.213267077370006 H 0.0 **** 0.06
20156 C 119.72052993286889 19.061726564332986 19.27732316347774 C 0.0 **** -0.24
20157 H 118.78942183606586 18.929032563078607 18.726821159035843 H 0.0 **** 0.06
20158 H 120.50249562635166 18.45752531990982 18.818391875948677 H 0.0 **** 0.06
20159 H 119.57851748318727 18.749665624052312 20.312214427498652 H 0.0 **** 0.06
20160 H 120.01026144777805 20.113088497430823 19.251432829346825 H 0.0 **** 0.06
20161 C 92.75624727682309 12.979459965013547 46.385528342355364 C 0.0 **** -0.24
20162 H 91.91661041834764 12.639576600510065 45.778231230374296 H 0.0 **** 0.06
20163 H 93.65833211680092 13.006772352366529 45.77386464844238 H 0.0 **** 0.06
20164 H 92.90217466942983 12.293164676799083 47.21919518109718 H 0.0 **** 0.06
20165 H 92.545889969676 13.97856064632128 46.76836923998345 H 0.0 **** 0.06
20166 C 21.62840317828602 115.15869331165138 1.0830185555647063 C 0.0 **** -0.24
20167 H 21.335813091455748 114.22397700359252 0.6031821094928205 H 0.0 **** 0.06
20168 H 21.480235012891285 115.07612045121229 2.159549727495289 H 0.0 **** 0.06
20169 H 21.017505857632273 115.97331090852475 0.6921692422646402 H 0.0 **** 0.06
20170 H 22.678987909233115 115.36078454302069 0.874254742376138 H 0.0 **** 0.06
20171 C 61.95445679333547 16.92455338333756 19.986008407679407 C 0.0 **** -0.24
20172 H 62.2732473439179 17.322309915456614 20.950352169232048 H 0.0 **** 0.06
20173 H 62.42477328986482 15.954990538067975 19.82027432480747 H 0.0 **** 0.06
20174 H 62.24917035771756 17.613111613395667 19.193983182101903 H 0.0 **** 0.06
20175 H 60.87038102278383 16.80834014150063 19.98179988780737 H 0.0 **** 0.06
20176 C 64.34403386947051 40.20459591231875 129.2275138871315 C 0.0 **** -0.24
20177 H 64.8532848780708 40.470049762939624 130.15305537160313 H 0.0 **** 0.06
20178 H 63.42808650013086 40.789748280875585 129.13620845917902 H 0.0 **** 0.06
20179 H 64.0971024696763 39.143365971790814 129.24060300395817 H 0.0 **** 0.06
20180 H 64.99641433922876 40.41558458843113 128.38074655394345 H 0.0 **** 0.06
20181 C 16.289406119905347 54.96256330227169 120.3422457239545 C 0.0 **** -0.24
20182 H 16.17733476823627 53.9418973782042 119.97673711561406 H 0.0 **** 0.06
20183 H 17.135672992221934 55.435811544471434 119.84420962527699 H 0.0 **** 0.06
20184 H 16.463499477513185 54.945251613121684 121.41788843910635 H 0.0 **** 0.06
20185 H 15.38071003384228 55.525094612993016 120.13020241938679 H 0.0 **** 0.06
20186 C 24.190254719502747 112.07184222124869 63.555838246632504 C 0.0 **** -0.24
20187 H 23.312817910935024 111.81732166945093 64.14889499742446 H 0.0 **** 0.06
20188 H 25.090390457540764 111.90247275811126 64.14833315191544 H 0.0 **** 0.06
20189 H 24.139311421137734 113.1199645434897 63.26289664103899 H 0.0 **** 0.06
20190 H 24.220056710031628 111.44635814964292 62.66331260456104 H 0.0 **** 0.06
20191 C 90.87525553785193 85.68643604998846 110.2045047238828 C 0.0 **** -0.24
20192 H 91.03669934151026 85.89703337238369 111.26175830803095 H 0.0 **** 0.06
20193 H 90.13932971878972 84.88927047438871 110.10164716381557 H 0.0 **** 0.06
20194 H 91.8154043615092 85.37374606307684 109.74903058898067 H 0.0 **** 0.06
20195 H 90.51163742190266 86.5847387967023 109.70652635359438 H 0.0 **** 0.06
20196 C 6.64533160573518 79.03737897798382 58.29492583555499 C 0.0 **** -0.24
20197 H 6.062517427461302 79.68005194357212 58.95346244479306 H 0.0 **** 0.06
20198 H 7.548569587236358 79.56166020063586 57.98120960176054 H 0.0 **** 0.06
20199 H 6.050752772450238 78.78038602535338 57.41827191162457 H 0.0 **** 0.06
20200 H 6.920953230747756 78.1260588244833 58.82681100963957 H 0.0 **** 0.06
20201 C 81.39427235089934 5.149080188925922 126.76246684301863 C 0.0 **** -0.24
20202 H 81.39600382940264 6.16508587317071 126.36991770720121 H 0.0 **** 0.06
20203 H 81.59426882816805 5.173680290385391 127.83449380688572 H 0.0 **** 0.06
20204 H 82.16712792318825 4.564651152848683 126.26175782765408 H 0.0 **** 0.06
20205 H 80.42057136083028 4.691806421931403 126.5847069145866 H 0.0 **** 0.06
20206 C 14.460529333862553 77.22512535478617 87.01492083299428 C 0.0 **** -0.24
20207 H 14.626765884238807 76.94538188590623 85.97535294867612 H 0.0 **** 0.06
20208 H 13.623327481483045 76.65211481175277 87.41585044195295 H 0.0 **** 0.06
20209 H 14.233706698453659 78.28969619917505 87.0732722037003 H 0.0 **** 0.06
20210 H 15.357348053846522 77.01297071705818 87.59618068013663 H 0.0 **** 0.06
20211 C 9.137623536959495 102.70069846505018 25.455748372569644 C 0.0 **** -0.24
20212 H 8.552839292517348 103.58484584061307 25.709208952978173 H 0.0 **** 0.06
20213 H 9.509769252828761 102.79102251392854 24.43484404481478 H 0.0 **** 0.06
20214 H 8.50799422232248 101.81394221725185 25.535440340467886 H 0.0 **** 0.06
20215 H 9.979235570644846 102.61222992091413 26.143451088411098 H 0.0 **** 0.06
20216 C 53.55417384103495 12.919402916954912 39.09901324901916 C 0.0 **** -0.24
20217 H 53.02650570471286 13.320121818321834 38.23357800406203 H 0.0 **** 0.06
20218 H 54.61039715105275 13.184946207859255 39.034223792586545 H 0.0 **** 0.06
20219 H 53.45165118464473 11.834944269123326 39.11618724121323 H 0.0 **** 0.06
20220 H 53.129176196543284 13.339933903912932 40.00994744767769 H 0.0 **** 0.06
20221 C 15.271940854892676 23.870815949172254 35.464996156949866 C 0.0 **** -0.24
20222 H 14.472098296161448 23.249341818300536 35.867671282624514 H 0.0 **** 0.06
20223 H 15.692420229221867 23.39258446213671 34.57997172342732 H 0.0 **** 0.06
20224 H 16.051274571802054 23.991257144538736 36.21707947141206 H 0.0 **** 0.06
20225 H 14.871599023272097 24.847659593377614 35.195214140806144 H 0.0 **** 0.06
20226 C 25.260462799672638 38.51031213233631 90.56193931565426 C 0.0 **** -0.24
20227 H 24.249402176994863 38.15006983493312 90.37152034634167 H 0.0 **** 0.06
20228 H 25.718354667551836 38.819454241155455 89.62282398117873 H 0.0 **** 0.06
20229 H 25.851413001456194 37.711984945055036 91.01043904611015 H 0.0 **** 0.06
20230 H 25.219927165301982 39.35901271772465 91.24391555293323 H 0.0 **** 0.06
20231 C 106.05802378111987 82.69071205594621 97.19097169528558 C 0.0 **** -0.24
20232 H 105.78075053065582 81.74590783479545 97.65811297858754 H 0.0 **** 0.06
20233 H 106.31057124222221 82.5175461766895 96.14445037369948 H 0.0 **** 0.06
20234 H 106.92114935977641 83.11103164946395 97.70801926971087 H 0.0 **** 0.06
20235 H 105.2218026861165 83.38633833289764 97.25369949176967 H 0.0 **** 0.06
20236 C 120.48855080106642 91.34831553917033 12.089674536451835 C 0.0 **** -0.24
20237 H 120.4624320303376 92.43486334477441 12.175045321880866 H 0.0 **** 0.06
20238 H 119.63184791172 90.92188364617363 12.611087467498624 H 0.0 **** 0.06
20239 H 121.40975120332422 90.97211186958779 12.534894821208624 H 0.0 **** 0.06
20240 H 120.45210942078563 91.06551938656995 11.037635168963295 H 0.0 **** 0.06
20241 C 30.322389000270235 118.56094655116067 24.725510407187812 C 0.0 **** -0.24
20242 H 30.51579864244532 117.8907886049891 23.888369162462766 H 0.0 **** 0.06
20243 H 29.656487930597578 119.361691274181 24.404071276875754 H 0.0 **** 0.06
20244 H 31.26243420100016 118.98672632931891 25.075181713827817 H 0.0 **** 0.06
20245 H 29.853367657154195 118.00157219379025 25.536092839522155 H 0.0 **** 0.06
20246 C 17.07746163413367 95.45738064416327 87.78406284747146 C 0.0 **** -0.24
20247 H 17.122540860172933 94.64193487216623 87.06310553178203 H 0.0 **** 0.06
20248 H 17.119184953388668 95.05079966955444 88.79455359334342 H 0.0 **** 0.06
20249 H 16.14745766892554 96.00930208228876 87.6515533630081 H 0.0 **** 0.06
20250 H 17.92257743827497 96.12775781170375 87.62755022305905 H 0.0 **** 0.06
20251 C 19.83001858619005 24.252036445763224 21.527442514503093 C 0.0 **** -0.24
20252 H 20.909024209962382 24.3893563694904 21.457933068680873 H 0.0 **** 0.06
20253 H 19.56453821051572 23.263651354645987 21.15210325396174 H 0.0 **** 0.06
20254 H 19.32822111604986 25.014067441674456 20.931449639264656 H 0.0 **** 0.06
20255 H 19.518608129702244 24.340159279622526 22.568546444684088 H 0.0 **** 0.06
20256 C 78.61799217663513 3.5076245361217957 121.76775986706289 C 0.0 **** -0.24
20257 H 77.74696127830669 2.8958561968875074 121.53190997907865 H 0.0 **** 0.06
20258 H 79.52493239130884 2.967060145004041 121.49503268977878 H 0.0 **** 0.06
20259 H 78.6309777127427 3.7249754179966317 122.83519715730318 H 0.0 **** 0.06
20260 H 78.56888118620509 4.441432144344958 121.20676076858035 H 0.0 **** 0.06
20261 C 128.7735073430926 62.89062601640495 73.60057734846563 C 0.0 **** -0.24
20262 H 128.48096181059168 63.891611352301226 73.2841758410739 H 0.0 **** 0.06
20263 H 128.55640289725156 62.179287919802704 72.80237977766743 H 0.0 **** 0.06
20264 H 128.21493587435504 62.614664994930564 74.49469695502805 H 0.0 **** 0.06
20265 H 129.8408093911993 62.87601585252585 73.81923986963852 H 0.0 **** 0.06
20266 C 41.29191149654628 50.443810909281865 84.4045154676923 C 0.0 **** -0.24
20267 H 41.926307142432194 51.3304671542038 84.41002618136929 H 0.0 **** 0.06
20268 H 41.91619484009158 49.55084045302334 84.41468857088759 H 0.0 **** 0.06
20269 H 40.67397110995637 50.4461358523796 83.50575196795626 H 0.0 **** 0.06
20270 H 40.65051382324876 50.44988472767207 85.2864903372255 H 0.0 **** 0.06
20271 C 109.25044203054165 41.22634845172885 113.88063427277275 C 0.0 **** -0.24
20272 H 110.3394755985243 41.2600061934632 113.83649168202207 H 0.0 **** 0.06
20273 H 108.83937824793134 42.088876543469354 113.35657387806326 H 0.0 **** 0.06
20274 H 108.92981766411378 41.24659390867001 114.92261635200389 H 0.0 **** 0.06
20275 H 108.8958935238332 40.310458315430196 113.4085537223795 H 0.0 **** 0.06
20276 C 68.4701974891473 97.58057314887017 5.2216294509484555 C 0.0 **** -0.24
20277 H 67.54603131896934 98.04261422644336 5.569303754294907 H 0.0 **** 0.06
20278 H 69.27471874737532 98.31522475997193 5.246848433821555 H 0.0 **** 0.06
20279 H 68.33514680400052 97.22472003238448 4.200298292535223 H 0.0 **** 0.06
20280 H 68.72220238795597 96.74110084563819 5.869123248032395 H 0.0 **** 0.06
20281 C 4.184687011630558 126.24741142519684 66.8843582000859 C 0.0 **** -0.24
20282 H 3.694518623714714 127.21921645446781 66.81624451751645 H 0.0 **** 0.06
20283 H 3.612868756089057 125.5114686642296 66.31909047096312 H 0.0 **** 0.06
20284 H 4.238978441001251 125.9412524827257 67.92869127343604 H 0.0 **** 0.06
20285 H 5.191610695150047 126.31888484466407 66.4735483939211 H 0.0 **** 0.06
20286 C 10.764913207739625 119.54607629227746 101.11213218980947 C 0.0 **** -0.24
20287 H 10.327214985695548 118.72258168109988 101.67616884455103 H 0.0 **** 0.06
20288 H 10.485292553043365 120.49298706118196 101.57439161668353 H 0.0 **** 0.06
20289 H 10.39715415482189 119.51962498286184 100.0855177653425 H 0.0 **** 0.06
20290 H 11.850582285347969 119.44817272408852 101.11112030074878 H 0.0 **** 0.06
20291 C 1.5574831112491552 97.56911209017488 123.49923765326986 C 0.0 **** -0.24
20292 H 1.3912982295224765 98.63545060180655 123.34393706368064 H 0.0 **** 0.06
20293 H 1.9312782835883127 97.12189276887258 122.5774179341912 H 0.0 **** 0.06
20294 H 0.6183691724987739 97.09274697572604 123.78115035315358 H 0.0 **** 0.06
20295 H 2.290153140728421 97.42826293935292 124.2945505940649 H 0.0 **** 0.06
20296 C 2.739430382175726 89.45580595236648 51.39661964221375 C 0.0 **** -0.24
20297 H 3.4484784435011875 89.97932420778827 50.755050494709735 H 0.0 **** 0.06
20298 H 2.28414991957348 88.63573049579546 50.841429213545666 H 0.0 **** 0.06
20299 H 1.9655965825623696 90.14852205341768 51.72443363455625 H 0.0 **** 0.06
20300 H 3.262992464993431 89.05841353596514 52.26607319246199 H 0.0 **** 0.06
20301 C 7.703916622702096 72.84614137690198 110.02906873227451 C 0.0 **** -0.24
20302 H 6.670136634938473 72.6662141860076 110.32522181855902 H 0.0 **** 0.06
20303 H 8.360325388809372 72.16721526757058 110.57315174504095 H 0.0 **** 0.06
20304 H 7.973285068997882 73.87693643984419 110.25988394660519 H 0.0 **** 0.06
20305 H 7.809480408965513 72.67408138977194 108.95821156025016 H 0.0 **** 0.06
20306 C 51.39176729505685 15.92018057178132 26.059701916727818 C 0.0 **** -0.24
20307 H 52.20686195885388 16.113594568874472 26.75624776644497 H 0.0 **** 0.06
20308 H 51.339396619271724 14.851481332715245 25.84955251768804 H 0.0 **** 0.06
20309 H 51.56860197151961 16.465482679361855 25.133614731106263 H 0.0 **** 0.06
20310 H 50.45120506577348 16.249759743503347 26.501349677880455 H 0.0 **** 0.06
20311 C 14.757382514386837 121.29633480243795 19.211555467464486 C 0.0 **** -0.24
20312 H 13.889861806660985 120.6405142067767 19.141052892603795 H 0.0 **** 0.06
20313 H 14.46935624618591 122.23000549691032 19.695913227698803 H 0.0 **** 0.06
20314 H 15.135921335452409 121.50734414874579 18.21100515290452 H 0.0 **** 0.06
20315 H 15.535785079144407 120.8072416655939 19.798217113571162 H 0.0 **** 0.06
20316 C 30.52338922272017 38.79886142818526 89.71273762443835 C 0.0 **** -0.24
20317 H 31.085601436376358 39.58697418783903 90.21488824413919 H 0.0 **** 0.06
20318 H 29.711017119703172 38.46392042206752 90.35807907368692 H 0.0 **** 0.06
20319 H 31.186922008255593 37.96115925116857 89.4982550601774 H 0.0 **** 0.06
20320 H 30.112083933546366 39.18468698232566 88.77994714842393 H 0.0 **** 0.06
20321 C 35.98020881632942 37.88464773797705 75.55796637874221 C 0.0 **** -0.24
20322 H 35.44940122778689 38.16694503062538 74.64867213526384 H 0.0 **** 0.06
20323 H 35.31318881188582 37.31743104576014 76.2070441853266 H 0.0 **** 0.06
20324 H 36.31547390691736 38.783156263616995 76.07684619702022 H 0.0 **** 0.06
20325 H 36.844152657036034 37.27209854871647 75.29920002282341 H 0.0 **** 0.06
20326 C 76.52438280503658 51.10763061439417 76.03591134639724 C 0.0 **** -0.24
20327 H 75.82465607698275 50.95527795523394 76.85831435160713 H 0.0 **** 0.06
20328 H 77.10044139556376 50.195118427299306 75.87620353164772 H 0.0 **** 0.06
20329 H 77.20096537051934 51.92578496833043 76.28180751770529 H 0.0 **** 0.06
20330 H 75.97147868544195 51.35216951886507 75.12913231670355 H 0.0 **** 0.06
20331 C 78.28477004367974 102.45801517531119 111.60167800519315 C 0.0 **** -0.24
20332 H 78.00344504294188 102.99603224522272 112.50648975393665 H 0.0 **** 0.06
20333 H 77.46024418259967 102.48807987474193 110.88983135551241 H 0.0 **** 0.06
20334 H 78.51166798733585 101.42158634437055 111.85132588721982 H 0.0 **** 0.06
20335 H 79.16423193703211 102.92575767645319 111.15967781024811 H 0.0 **** 0.06
20336 C 53.8646080646178 34.10150076948008 23.886863029673606 C 0.0 **** -0.24
20337 H 54.04715643391289 33.11736495431725 24.317760032697713 H 0.0 **** 0.06
20338 H 53.93126394467758 34.85878879452228 24.66783889126618 H 0.0 **** 0.06
20339 H 52.870313218956056 34.1235113485302 23.442388414540453 H 0.0 **** 0.06
20340 H 54.610733322167434 34.30474154502184 23.117921664702223 H 0.0 **** 0.06
20341 C 41.967258013636865 94.65429988123681 75.62889912041439 C 0.0 **** -0.24
20342 H 40.98683284982552 94.18364373390109 75.56624388115385 H 0.0 **** 0.06
20343 H 42.147066066897125 94.98573173625739 76.6518685673848 H 0.0 **** 0.06
20344 H 42.001962990214494 95.51221626061634 74.95655130423052 H 0.0 **** 0.06
20345 H 42.733969318108215 93.9353820333161 75.33941268731049 H 0.0 **** 0.06
20346 C 38.60368140740202 114.95418185439512 112.40371372657913 C 0.0 **** -0.24
20347 H 39.090085105674056 115.21126755723007 113.34481832636354 H 0.0 **** 0.06
20348 H 39.13746109903114 115.42618240802024 111.57828884216516 H 0.0 **** 0.06
20349 H 37.57201467911385 115.30867432973024 112.42015871605949 H 0.0 **** 0.06
20350 H 38.61391014128336 113.87225130792145 112.2728966104929 H 0.0 **** 0.06
20351 C 93.68919787882737 13.65235253693092 120.33871834811045 C 0.0 **** -0.24
20352 H 93.07427593379266 14.534278354903286 120.51822412826473 H 0.0 **** 0.06
20353 H 94.63773862657484 13.758139055894617 120.8664258468833 H 0.0 **** 0.06
20354 H 93.87663635014215 13.551785962822073 119.27034688984388 H 0.0 **** 0.06
20355 H 93.16821606821178 12.766572606840892 120.70133564704919 H 0.0 **** 0.06
20356 C 104.00218947670008 119.03763134318501 31.100912911424757 C 0.0 **** -0.24
20357 H 103.16913346958967 118.93405557846506 31.79666161414776 H 0.0 **** 0.06
20358 H 104.91333296741225 119.2610092169574 31.656491322254467 H 0.0 **** 0.06
20359 H 103.79391874234722 119.84988565450118 30.404116143510947 H 0.0 **** 0.06
20360 H 104.13156468235896 118.10732869320168 30.547510232540823 H 0.0 **** 0.06
20361 C 60.77235160440273 52.79749728764091 75.24391539545285 C 0.0 **** -0.24
20362 H 61.58680077685844 53.4681508691865 75.52021209055704 H 0.0 **** 0.06
20363 H 61.17935926968349 51.81825298751062 74.99080897386484 H 0.0 **** 0.06
20364 H 60.24308651593448 53.205409146405714 74.38290561779881 H 0.0 **** 0.06
20365 H 60.08289880680647 52.699990526032934 76.08218964081087 H 0.0 **** 0.06
20366 C 121.85034349933602 36.74597404303475 32.46045087874319 C 0.0 **** -0.24
20367 H 122.84637943164276 37.02328481000998 32.11563699041716 H 0.0 **** 0.06
20368 H 121.65900938408204 37.210032552738056 33.42851775766758 H 0.0 **** 0.06
20369 H 121.78876261998444 35.66209305084617 32.558635739501085 H 0.0 **** 0.06
20370 H 121.10825679957449 37.08860778777142 31.739969882992852 H 0.0 **** 0.06
20371 C 42.89905712439196 39.9954932299002 95.23727684600749 C 0.0 **** -0.24
20372 H 41.81720346695501 39.99716324207509 95.36756231883211 H 0.0 **** 0.06
20373 H 43.34195098672783 40.77058966099296 95.86262475920576 H 0.0 **** 0.06
20374 H 43.13790013384318 40.19164968530114 94.19163102832947 H 0.0 **** 0.06
20375 H 43.29875454761629 39.02293101570138 95.52512263934146 H 0.0 **** 0.06
20376 C 9.876137399868867 86.64802727938981 85.8876872768534 C 0.0 **** -0.24
20377 H 9.536705696667184 87.3973650758475 85.173167572333 H 0.0 **** 0.06
20378 H 9.576871993550412 85.6572259042349 85.5445468230767 H 0.0 **** 0.06
20379 H 9.428035840001144 86.84516785384041 86.86189264073545 H 0.0 **** 0.06
20380 H 10.961943978035663 86.69123665110028 85.97202283538547 H 0.0 **** 0.06
20381 C 62.59621743601397 36.71304992227567 7.863304829653515 C 0.0 **** -0.24
20382 H 62.78127732516734 37.78731745249601 7.874195107866427 H 0.0 **** 0.06
20383 H 62.07287248886837 36.42565743074189 8.77608639092152 H 0.0 **** 0.06
20384 H 63.54552441675287 36.181093225898536 7.805453590111512 H 0.0 **** 0.06
20385 H 61.98339176235541 36.45944948177416 6.997583714481991 H 0.0 **** 0.06
20386 C 55.55739388393718 122.72834989472528 13.61982671980121 C 0.0 **** -0.24
20387 H 55.76898195768777 121.90551327247215 14.303349142117298 H 0.0 **** 0.06
20388 H 56.2652279184025 123.53841427837722 13.795679347643926 H 0.0 **** 0.06
20389 H 54.542216744531714 123.08813704920647 13.788945253387823 H 0.0 **** 0.06
20390 H 55.65274084524532 122.37892017604827 12.59138355547691 H 0.0 **** 0.06
20391 C 17.481627491770496 126.78715119707195 67.31577501232441 C 0.0 **** -0.24
20392 H 18.533993383324628 126.7415735565182 67.03575863658773 H 0.0 **** 0.06
20393 H 17.343508266167362 127.54822074150022 68.08397076599174 H 0.0 **** 0.06
20394 H 17.166970748062454 125.81828784504214 67.70340808710276 H 0.0 **** 0.06
20395 H 16.88387538080096 127.04006830226334 66.4406077309034 H 0.0 **** 0.06
20396 C 11.776034794648012 121.99399799753621 23.468863357621004 C 0.0 **** -0.24
20397 H 11.556604100643199 122.45316655769763 22.50465647843101 H 0.0 **** 0.06
20398 H 11.624947801071016 122.72697192778162 24.26171166611239 H 0.0 **** 0.06
20399 H 12.811396632423282 121.65252042999775 23.480923221203533 H 0.0 **** 0.06
20400 H 11.111546188832676 121.14474957552136 23.626468726828435 H 0.0 **** 0.06
20401 C 81.44350152026306 37.76605889758957 36.71895779216392 C 0.0 **** -0.24
20402 H 81.83663326956884 37.39175734352608 35.77308818578189 H 0.0 **** 0.06
20403 H 81.43161599272474 38.8563812077889 36.70108242577311 H 0.0 **** 0.06
20404 H 82.0773521404966 37.42335042856095 37.536384686125146 H 0.0 **** 0.06
20405 H 80.42974652645375 37.392966941054794 36.86350071531618 H 0.0 **** 0.06
20406 C 18.72543625351892 80.98307533895866 35.258853744876944 C 0.0 **** -0.24
20407 H 18.473142408414844 81.78109907165069 34.561311381233 H 0.0 **** 0.06
20408 H 17.921336755769005 80.24668218281906 35.27468544890246 H 0.0 **** 0.06
20409 H 18.856256881369745 81.39951728158897 36.25777594260745 H 0.0 **** 0.06
20410 H 19.652310851971492 80.5029693851391 34.94122919495106 H 0.0 **** 0.06
20411 C 37.949863230717185 16.818888844259618 7.249028439333131 C 0.0 **** -0.24
20412 H 38.546915943132085 17.688808515374205 6.977136473315198 H 0.0 **** 0.06
20413 H 37.11584557006195 17.13240898550515 7.877436085777191 H 0.0 **** 0.06
20414 H 38.57052437919189 16.10907024317578 7.795669774674678 H 0.0 **** 0.06
20415 H 37.565309798134685 16.344797900355218 6.345660331385574 H 0.0 **** 0.06
20416 C 23.186202875250416 21.26720007667418 43.773068593354964 C 0.0 **** -0.24
20417 H 23.523062615977743 21.34901166009915 44.80581530622851 H 0.0 **** 0.06
20418 H 23.813347093913933 20.54873206739188 43.2430143976527 H 0.0 **** 0.06
20419 H 23.260201175837025 22.24005751334687 43.28825928489522 H 0.0 **** 0.06
20420 H 22.150821176631986 20.929159770650394 43.75386238702836 H 0.0 **** 0.06
20421 C 87.27287522942297 129.73815734707821 72.4743416852769 C 0.0 **** -0.24
20422 H 87.90263299791891 129.37594301943656 73.28804095657841 H 0.0 **** 0.06
20423 H 86.90426866173223 130.73453265416174 72.71608712552305 H 0.0 **** 0.06
20424 H 86.42994977058132 129.06041906651012 72.33919375011564 H 0.0 **** 0.06
20425 H 87.85748177327989 129.77940242376536 71.55477953089135 H 0.0 **** 0.06
20426 C 70.06390111160493 75.82345529022118 52.14705604360705 C 0.0 **** -0.24
20427 H 70.76905982091245 75.03941900704191 51.87265720311325 H 0.0 **** 0.06
20428 H 70.56259342656335 76.79231017410157 52.1028211327407 H 0.0 **** 0.06
20429 H 69.70120832404007 75.64743256625201 53.16068048901241 H 0.0 **** 0.06
20430 H 69.22245442462412 75.81508887838802 51.45424081183063 H 0.0 **** 0.06
20431 C 21.476932715443695 16.61509869782637 77.41541954471884 C 0.0 **** -0.24
20432 H 22.206952265643167 15.826714959358611 77.60466575833757 H 0.0 **** 0.06
20433 H 20.475633333648858 16.184623083668242 77.39490671850737 H 0.0 **** 0.06
20434 H 21.691456741351175 17.08454540963055 76.45543897774994 H 0.0 **** 0.06
20435 H 21.53568479066621 17.361707697449987 78.207060647325 H 0.0 **** 0.06
20436 C 89.36024143313867 58.84400716405867 68.92248296929658 C 0.0 **** -0.24
20437 H 88.65671121766925 58.89898971465493 69.75447560235826 H 0.0 **** 0.06
20438 H 89.45096627401747 59.826913080444825 68.45903880965228 H 0.0 **** 0.06
20439 H 88.99568949507349 58.12723130155575 68.18609871960392 H 0.0 **** 0.06
20440 H 90.33478605534245 58.523545834363546 69.29113429270035 H 0.0 **** 0.06
20441 C 33.559259228378735 83.98208417260535 26.581877943311227 C 0.0 **** -0.24
20442 H 33.07794595620519 84.82456075112918 27.078769512042193 H 0.0 **** 0.06
20443 H 33.18715448170681 83.04950100846604 27.00625298775978 H 0.0 **** 0.06
20444 H 34.637679071476875 84.04397348418003 26.727300834297516 H 0.0 **** 0.06
20445 H 33.33410258399676 84.01264560465096 25.515882189584488 H 0.0 **** 0.06
20446 C 21.222295400692417 28.934390215913957 74.49236995688108 C 0.0 **** -0.24
20447 H 20.654242995832135 29.717707233794805 74.99499449779483 H 0.0 **** 0.06
20448 H 20.90130899763932 27.95965303162584 74.86169731995932 H 0.0 **** 0.06
20449 H 22.28470422672342 29.068504095059872 74.69664781099596 H 0.0 **** 0.06
20450 H 21.04857307147597 28.991542543705613 73.41810295122144 H 0.0 **** 0.06
20451 C 1.8455828342231158 83.74283190817803 84.6579401721655 C 0.0 **** -0.24
20452 H 2.533985734931587 84.05720453313941 83.87311993768056 H 0.0 **** 0.06
20453 H 0.9244008216542277 83.37661168753782 84.20669431962014 H 0.0 **** 0.06
20454 H 1.6222139447051624 84.59107421396551 85.30546996541388 H 0.0 **** 0.06
20455 H 2.304031269390915 82.94835118257562 85.24626393069649 H 0.0 **** 0.06
20456 C 123.23400093098688 30.392267465315058 74.47788708284354 C 0.0 **** -0.24
20457 H 123.7772021327548 29.517498418975407 74.12087164927205 H 0.0 **** 0.06
20458 H 123.81863039154945 30.893709109877747 75.25017020938192 H 0.0 **** 0.06
20459 H 122.27565779913704 30.081385137741833 74.8926906934388 H 0.0 **** 0.06
20460 H 123.06528464684996 31.078281841116294 73.64743022246422 H 0.0 **** 0.06
20461 C 44.70221551059748 1.8957272017262596 96.74550707208383 C 0.0 **** -0.24
20462 H 44.892528179159086 2.0513580896491987 95.68333353855334 H 0.0 **** 0.06
20463 H 43.62591936074671 1.8952077697227026 96.92512038328053 H 0.0 **** 0.06
20464 H 45.1658356520781 2.6987379531580302 97.31900301693496 H 0.0 **** 0.06
20465 H 45.122823380933 0.9389859062788446 97.05467946519329 H 0.0 **** 0.06
20466 C 100.07004866175207 97.72198117651917 92.68275604278143 C 0.0 **** -0.24
20467 H 99.33564378859614 98.03763679112578 93.42411257823095 H 0.0 **** 0.06
20468 H 100.92904279732048 97.28045185692034 93.18804942960784 H 0.0 **** 0.06
20469 H 100.39386558214443 98.58580945977414 92.10241497514973 H 0.0 **** 0.06
20470 H 99.62049582395898 96.98501496993683 92.01728889569121 H 0.0 **** 0.06
20471 C 16.139554767965272 52.33512519896786 113.51563948808096 C 0.0 **** -0.24
20472 H 15.383707389720591 52.49883090942552 112.747682043008 H 0.0 **** 0.06
20473 H 17.010388579517574 51.85354491460379 113.07016063705832 H 0.0 **** 0.06
20474 H 15.729510431067247 51.6939930849089 114.29728444496014 H 0.0 **** 0.06
20475 H 16.433111778306678 53.29185980558336 113.9466657041785 H 0.0 **** 0.06
20476 C 48.218307273719006 7.772156153389872 109.18188070826102 C 0.0 **** -0.24
20477 H 49.27225348542443 7.564144520155203 108.99879607118959 H 0.0 **** 0.06
20478 H 48.12831502270677 8.629733331814123 109.84921742289856 H 0.0 **** 0.06
20479 H 47.75168611788237 6.901473281659676 109.64347419570629 H 0.0 **** 0.06
20480 H 47.72136928450175 7.992072206024332 108.2366685258441 H 0.0 **** 0.06
20481 C 129.64002709494412 111.17404604785627 28.572966626146496 C 0.0 **** -0.24
20482 H 128.72889335310674 110.62445806250429 28.80905307615386 H 0.0 **** 0.06
20483 H 130.0572673439405 111.59588180092325 29.488111817533394 H 0.0 **** 0.06
20484 H 129.40860579655265 111.97836384813166 27.874893914393553 H 0.0 **** 0.06
20485 H 130.36481165643568 110.4971463523256 28.121075500554213 H 0.0 **** 0.06
20486 C 19.01058533610893 16.414485218543906 103.14334294479227 C 0.0 **** -0.24
20487 H 19.36768965065849 15.964454076685914 104.06988758690161 H 0.0 **** 0.06
20488 H 19.75943083688938 17.11151666663423 102.76704246271552 H 0.0 **** 0.06
20489 H 18.07930562248052 16.948434214978896 103.33389232645408 H 0.0 **** 0.06
20490 H 18.835933172983715 15.632699971175938 102.404066321854 H 0.0 **** 0.06
20491 C 111.3587434575347 105.81873989514216 56.081474806250654 C 0.0 **** -0.24
20492 H 112.25178997472185 106.33053067222735 56.439187749997416 H 0.0 **** 0.06
20493 H 111.46482161457872 104.74623624122378 56.24490923828519 H 0.0 **** 0.06
20494 H 111.23011545786537 106.01466698799041 55.01732263683223 H 0.0 **** 0.06
20495 H 110.48827979516622 106.18533034212865 56.62665733936687 H 0.0 **** 0.06
20496 C 20.570237139182268 125.13928954927792 112.39593914464534 C 0.0 **** -0.24
20497 H 21.506596629787452 125.15912721517998 112.95442629326682 H 0.0 **** 0.06
20498 H 20.001319606117846 124.2517809825518 112.67394612932087 H 0.0 **** 0.06
20499 H 20.784622477560255 125.11404221735614 111.32791624129689 H 0.0 **** 0.06
20500 H 19.989809452810128 126.03137608554101 112.62900077275408 H 0.0 **** 0.06
20501 C 91.60172460384618 89.04573251011948 37.68930258979074 C 0.0 **** -0.24
20502 H 91.05176304296648 89.63605404541312 38.42196705295564 H 0.0 **** 0.06
20503 H 90.90077824716789 88.60316863402414 36.98082185754083 H 0.0 **** 0.06
20504 H 92.1527036874136 88.25548207926897 38.19870493132632 H 0.0 **** 0.06
20505 H 92.30028557487421 89.68975133376222 37.15437470813893 H 0.0 **** 0.06
20506 C 128.06405808857178 67.92460394168849 121.10544520618659 C 0.0 **** -0.24
20507 H 128.43180402106154 67.3056182896602 120.28621554330806 H 0.0 **** 0.06
20508 H 128.06194507761353 68.96965103734132 120.79677947511261 H 0.0 **** 0.06
20509 H 128.71377153242517 67.80218683807794 121.97222659802121 H 0.0 **** 0.06
20510 H 127.05072712899688 67.61915211801616 121.36526628688792 H 0.0 **** 0.06
20511 C 57.69198748764401 86.31130509641588 123.81289838325125 C 0.0 **** -0.24
20512 H 56.615047987920875 86.14816913725025 123.79174719252119 H 0.0 **** 0.06
20513 H 57.90427220278657 87.36305823206409 123.61686241906679 H 0.0 **** 0.06
20514 H 58.16744783951832 85.69540647014738 123.04978778520542 H 0.0 **** 0.06
20515 H 58.08123587156402 86.03827838488873 124.79457535257242 H 0.0 **** 0.06
20516 C 123.45855499327642 48.17679658167133 84.75047889767866 C 0.0 **** -0.24
20517 H 123.6894599041433 47.11320656627146 84.69325429743316 H 0.0 **** 0.06
20518 H 123.8648906506561 48.68446446828254 83.87576002135343 H 0.0 **** 0.06
20519 H 123.90347581852193 48.59625910329821 85.65364566323402 H 0.0 **** 0.06
20520 H 122.37701365626862 48.312772829747054 84.78109466218626 H 0.0 **** 0.06
20521 C 56.03962186721222 53.518615551744716 6.708994238248351 C 0.0 **** -0.24
20522 H 57.09256795138218 53.76405449124596 6.846423219153422 H 0.0 **** 0.06
20523 H 55.86961694972581 52.47853223153098 6.987747713807153 H 0.0 **** 0.06
20524 H 55.76728758905239 53.663793369545374 5.662875222068948 H 0.0 **** 0.06
20525 H 55.43000508730563 54.16836110030792 7.335940411462985 H 0.0 **** 0.06
20526 C 33.212700702280934 125.88119853198916 88.28161186331883 C 0.0 **** -0.24
20527 H 32.63607642750195 125.63147245461252 89.17225702383183 H 0.0 **** 0.06
20528 H 32.539665786973956 125.97410772349295 87.42815802142005 H 0.0 **** 0.06
20529 H 33.93953814885541 125.0924693646698 88.0874467386607 H 0.0 **** 0.06
20530 H 33.73330303348807 126.82571024670344 88.43851719578097 H 0.0 **** 0.06
20531 C 66.24063823555464 94.16041316277546 30.40955849655154 C 0.0 **** -0.24
20532 H 66.09110328390422 93.12824042589978 30.72615003435169 H 0.0 **** 0.06
20533 H 66.04594987532982 94.82926952920326 31.24846738648702 H 0.0 **** 0.06
20534 H 65.55638421238999 94.3925595223381 29.593033537548237 H 0.0 **** 0.06
20535 H 67.26786647439248 94.29122760183827 30.071142884279595 H 0.0 **** 0.06
20536 C 30.490666690090507 8.960108599903037 60.78559981007544 C 0.0 **** -0.24
20537 H 29.7558507210465 9.76408476706709 60.832325681157045 H 0.0 **** 0.06
20538 H 31.26425983420188 9.132376359796268 61.53467790987992 H 0.0 **** 0.06
20539 H 30.941884403056918 8.93806068591536 59.79421851687209 H 0.0 **** 0.06
20540 H 29.99946191443138 8.007603885152463 60.98355961878764 H 0.0 **** 0.06
20541 C 32.49227925264245 25.32492837449847 76.99623903685205 C 0.0 **** -0.24
20542 H 31.428593645769467 25.200596826585524 76.78917586209835 H 0.0 **** 0.06
20543 H 33.02758350479945 24.424505579298682 76.69547401455371 H 0.0 **** 0.06
20544 H 32.63650070443214 25.496695583161568 78.06281095474843 H 0.0 **** 0.06
20545 H 32.872674640772686 26.179515325967003 76.43542887249443 H 0.0 **** 0.06
20546 C 85.86202488373124 120.01904825125524 63.19910166365901 C 0.0 **** -0.24
20547 H 84.92815130035842 119.5397808702196 62.904823912252965 H 0.0 **** 0.06
20548 H 86.27979011047151 120.55515916642094 62.345934113473476 H 0.0 **** 0.06
20549 H 86.56994167162344 119.25986795086999 63.53314899225785 H 0.0 **** 0.06
20550 H 85.67063342220519 120.71975639816537 64.01102518251025 H 0.0 **** 0.06
20551 C 121.2823126327678 101.47972473210186 21.985778039708862 C 0.0 **** -0.24
20552 H 122.3571606622778 101.58141718290386 21.838972802783417 H 0.0 **** 0.06
20553 H 120.969313288559 100.47765209489083 21.691893144873347 H 0.0 **** 0.06
20554 H 120.76065231230731 102.21666156372444 21.374420424169784 H 0.0 **** 0.06
20555 H 121.04144980769468 101.64361568605116 23.035513841058332 H 0.0 **** 0.06
20556 C 49.70079328693913 13.681890380125832 39.77439384874998 C 0.0 **** -0.24
20557 H 49.72364009615603 14.083143083750713 38.76183338726074 H 0.0 **** 0.06
20558 H 49.002255650372945 12.846049229583336 39.817720874415045 H 0.0 **** 0.06
20559 H 49.379618129955645 14.459938054736647 40.466090848962324 H 0.0 **** 0.06
20560 H 50.69672628632412 13.337394457322574 40.05169594649837 H 0.0 **** 0.06
20561 C 57.26131793088523 67.131172785075 89.13941431983869 C 0.0 **** -0.24
20562 H 57.44199221141693 66.06103537383429 89.03201661936635 H 0.0 **** 0.06
20563 H 56.53633342672981 67.45304083725155 88.39110224908336 H 0.0 **** 0.06
20564 H 58.19647810513162 67.67300272810299 88.99738178559758 H 0.0 **** 0.06
20565 H 56.870793263213216 67.3351873625565 90.13542029223814 H 0.0 **** 0.06
20566 C 58.8401288496692 43.0265813041394 4.869079525316408 C 0.0 **** -0.24
20567 H 58.53939089867772 43.65380947449927 4.030151070675117 H 0.0 **** 0.06
20568 H 58.42120540508854 42.027446957749106 4.7436911181915775 H 0.0 **** 0.06
20569 H 58.46983999469194 43.46182954455213 5.7975495739593725 H 0.0 **** 0.06
20570 H 59.92729878313479 42.963706836996494 4.904699099956758 H 0.0 **** 0.06
20571 C 30.106056012964913 102.79236043474248 73.00797336617525 C 0.0 **** -0.24
20572 H 29.71029660998522 103.7912185462655 73.19553006956109 H 0.0 **** 0.06
20573 H 30.748658105568808 102.49496082198385 73.83704364444772 H 0.0 **** 0.06
20574 H 30.68403670177554 102.79882957303292 72.08364173462556 H 0.0 **** 0.06
20575 H 29.280554500856326 102.08655862370097 72.91582388665235 H 0.0 **** 0.06
20576 C 18.9965621531706 62.035875420517044 18.345669466115567 C 0.0 **** -0.24
20577 H 18.33288762160231 61.17841583179077 18.22879898298539 H 0.0 **** 0.06
20578 H 18.820014863996633 62.50092958935261 19.316221483188997 H 0.0 **** 0.06
20579 H 18.798378553780026 62.75895009512831 17.554539426354985 H 0.0 **** 0.06
20580 H 20.033113942691926 61.704481865172596 18.284137639480797 H 0.0 **** 0.06
20581 C 31.722025548269137 28.499416862038856 106.46248368005752 C 0.0 **** -0.24
20582 H 30.775881458776247 28.68801727071309 106.96973580201924 H 0.0 **** 0.06
20583 H 32.54686826804463 28.711584066697867 107.14277482265152 H 0.0 **** 0.06
20584 H 31.798782734210448 29.141252617980257 105.58487803812034 H 0.0 **** 0.06
20585 H 31.76577252766861 27.454606776026083 106.15324976342441 H 0.0 **** 0.06
20586 C 96.54323758906162 92.2092865669876 23.810165860343602 C 0.0 **** -0.24
20587 H 97.44071225925313 92.65436922233916 24.24094558762397 H 0.0 **** 0.06
20588 H 96.48648276172958 92.45863283571884 22.7505759402419 H 0.0 **** 0.06
20589 H 95.66325943638509 92.5988583980444 24.322990163240206 H 0.0 **** 0.06
20590 H 96.58239486084244 91.12678674199339 23.927806222921163 H 0.0 **** 0.06
20591 C 29.787101814679886 8.5659942072528 126.13673208713818 C 0.0 **** -0.24
20592 H 29.648348536381604 9.340975274952939 126.8909219656028 H 0.0 **** 0.06
20593 H 29.444580907872307 7.6095677047219965 126.53206012499815 H 0.0 **** 0.06
20594 H 30.844653915707738 8.495753803629668 125.87993961150772 H 0.0 **** 0.06
20595 H 29.212966154149854 8.81873522739761 125.24582264120615 H 0.0 **** 0.06
20596 C 119.93666260596547 43.1080322817476 60.87209985100269 C 0.0 **** -0.24
20597 H 118.94967140524994 43.26986921799775 60.43924696241581 H 0.0 **** 0.06
20598 H 120.67331237029163 43.0176287572543 60.07354376634319 H 0.0 **** 0.06
20599 H 119.92764451207307 42.19252490435011 61.46318052070241 H 0.0 **** 0.06
20600 H 120.19585366689427 43.95112360123093 61.512350176627606 H 0.0 **** 0.06
20601 C 103.12052742408719 34.935070483633865 73.66423245346755 C 0.0 **** -0.24
20602 H 103.34478519835318 33.89056272825232 73.44862296623666 H 0.0 **** 0.06
20603 H 103.23235800160637 35.52635107798244 72.7550929255859 H 0.0 **** 0.06
20604 H 103.80819070874611 35.30412639467272 74.42529448909667 H 0.0 **** 0.06
20605 H 102.09615133725254 35.01908288063082 74.02868420963989 H 0.0 **** 0.06
20606 C 85.00135595992813 84.20907986468617 32.46430682333644 C 0.0 **** -0.24
20607 H 85.775202100957 83.44286999778689 32.40862818637606 H 0.0 **** 0.06
20608 H 84.75296765133096 84.54856268714568 31.458925746042368 H 0.0 **** 0.06
20609 H 85.36492447135598 85.04983660949465 33.05424787653757 H 0.0 **** 0.06
20610 H 84.11161960339552 83.7916469267458 32.93680918931696 H 0.0 **** 0.06
20611 C 20.391451260481347 37.85557515826494 42.723313441553785 C 0.0 **** -0.24
20612 H 21.466568427600976 38.03462835750227 42.72076597965221 H 0.0 **** 0.06
20613 H 19.90160998146979 38.5982614571285 43.354413392664746 H 0.0 **** 0.06
20614 H 20.190506943222374 36.857751680218115 43.112314875623845 H 0.0 **** 0.06
20615 H 20.00820066263657 37.93357444179321 41.7061637326934 H 0.0 **** 0.06
20616 C 110.94617197542799 124.63813762281467 107.6246002198522 C 0.0 **** -0.24
20617 H 110.04488204251773 125.10859475023952 108.01586348357421 H 0.0 **** 0.06
20618 H 111.7746783896283 125.34538138652582 107.6735481604197 H 0.0 **** 0.06
20619 H 110.78153912526952 124.34299215212846 106.5877643074381 H 0.0 **** 0.06
20620 H 111.18407980233548 123.7572855082677 108.2195344979448 H 0.0 **** 0.06
20621 C 110.65874970894626 128.23137889036514 92.68927391966595 C 0.0 **** -0.24
20622 H 110.78457254648771 127.95690831487991 93.7373889307038 H 0.0 **** 0.06
20623 H 109.67926025440971 127.90150597672218 92.34235928340549 H 0.0 **** 0.06
20624 H 111.43650568085934 127.75289357287633 92.09328233227596 H 0.0 **** 0.06
20625 H 110.73604066417079 129.31393531547636 92.5858031863547 H 0.0 **** 0.06
20626 C 87.83251013559777 113.8983519014998 84.18948187224572 C 0.0 **** -0.24
20627 H 86.78581023270304 113.6800766845274 83.97142944296712 H 0.0 **** 0.06
20628 H 87.88940394514375 114.64574350258037 84.98054529024998 H 0.0 **** 0.06
20629 H 88.31738760034737 114.28000954075894 83.29065441862247 H 0.0 **** 0.06
20630 H 88.33351829104733 112.98583849738047 84.51339947544105 H 0.0 **** 0.06
20631 C 39.15248311040918 103.21067211375954 7.106879255858015 C 0.0 **** -0.24
20632 H 38.98931863204464 102.64983139895543 6.186968675424826 H 0.0 **** 0.06
20633 H 40.21126880004653 103.18163572177495 7.367697816133013 H 0.0 **** 0.06
20634 H 38.568135335681404 102.7661274206536 7.912189839396074 H 0.0 **** 0.06
20635 H 38.84210416890791 104.24598327729014 6.96130024141214 H 0.0 **** 0.06
20636 C 105.08160614195191 114.85682237478237 53.780696290517 C 0.0 **** -0.24
20637 H 105.58870161210977 115.7646437981129 54.10879225753911 H 0.0 **** 0.06
20638 H 105.50584787325755 113.99713260938124 54.29898858873102 H 0.0 **** 0.06
20639 H 105.21382451834782 114.73587497328633 52.70562723021786 H 0.0 **** 0.06
20640 H 104.0183971821048 114.93248506926629 54.01025755702781 H 0.0 **** 0.06
20641 C 115.59748701121117 3.5749689401681906 106.57364142029377 C 0.0 **** -0.24
20642 H 116.16990774059897 4.091307555538862 105.80284090823397 H 0.0 **** 0.06
20643 H 114.98892726142842 2.7956383550759654 106.11321289287433 H 0.0 **** 0.06
20644 H 114.9507087743498 4.287259976466828 107.08585608070157 H 0.0 **** 0.06
20645 H 116.28196355171849 3.1241401391770296 107.29313415917807 H 0.0 **** 0.06
20646 C 46.53300472188505 62.772894821085 106.47920976785291 C 0.0 **** -0.24
20647 H 47.05998533000664 62.35186655126307 105.62351469767212 H 0.0 **** 0.06
20648 H 45.87519600430912 63.57407012665351 106.14265326863924 H 0.0 **** 0.06
20649 H 47.255563343134014 63.17001855819527 107.19159112655251 H 0.0 **** 0.06
20650 H 45.94049406343896 61.99362899580166 106.9597213963232 H 0.0 **** 0.06
20651 C 31.80207525702943 67.04475420330725 99.14777870363164 C 0.0 **** -0.24
20652 H 31.519935840668765 66.25799143889094 99.84723717792157 H 0.0 **** 0.06
20653 H 30.981114366546535 67.75528018060301 99.05003139175783 H 0.0 **** 0.06
20654 H 32.0183891705189 66.60373612063941 98.17455579454658 H 0.0 **** 0.06
20655 H 32.68792395868343 67.5598678198882 99.51855825861004 H 0.0 **** 0.06
20656 C 62.63256668896618 68.7254495028788 87.17229691008922 C 0.0 **** -0.24
20657 H 62.76806658134528 69.67085333805747 87.69767186274947 H 0.0 **** 0.06
20658 H 61.965636403049956 68.87566576406996 86.32279671049506 H 0.0 **** 0.06
20659 H 62.1970457821958 67.99253284644162 87.8515378028105 H 0.0 **** 0.06
20660 H 63.598246882889526 68.36532151642425 86.81804834646903 H 0.0 **** 0.06
20661 C 118.1510366379286 107.20794236850466 65.5738723893674 C 0.0 **** -0.24
20662 H 119.17222117760593 106.87613470002643 65.76029463153772 H 0.0 **** 0.06
20663 H 118.13245475555476 108.29458383119864 65.4831553266927 H 0.0 **** 0.06
20664 H 117.51217292601103 106.90069913202524 66.40231928796517 H 0.0 **** 0.06
20665 H 117.78604297094915 106.75933884698911 64.64908805661567 H 0.0 **** 0.06
20666 C 34.02812963480588 24.76276579615609 53.61582723705675 C 0.0 **** -0.24
20667 H 34.8946532113373 24.185096807031826 53.29539182716937 H 0.0 **** 0.06
20668 H 33.29380307084304 24.793649364941558 52.81015283674654 H 0.0 **** 0.06
20669 H 34.33889755544965 25.778129383229555 53.86309346510572 H 0.0 **** 0.06
20670 H 33.58420990884599 24.294294327195573 54.49439325418055 H 0.0 **** 0.06
20671 C 10.722728475651536 116.94276725592545 15.343550784030924 C 0.0 **** -0.24
20672 H 10.792995750175749 117.2895636590141 14.31202652418608 H 0.0 **** 0.06
20673 H 10.871543724287108 115.86282060073108 15.374353134689613 H 0.0 **** 0.06
20674 H 9.736997821530053 117.18467405945594 15.741379472172298 H 0.0 **** 0.06
20675 H 11.488057349469955 117.43366631250649 15.944671652263935 H 0.0 **** 0.06
20676 C 84.44893368825993 80.55371344697238 81.19478173319811 C 0.0 **** -0.24
20677 H 83.41810853224575 80.81525214445466 80.9552165157001 H 0.0 **** 0.06
20678 H 84.51084600529539 80.24219555765175 82.23776014698299 H 0.0 **** 0.06
20679 H 85.09065523882859 81.41936436408972 81.03411018091424 H 0.0 **** 0.06
20680 H 84.7741078393104 79.73678077026821 80.55050985850357 H 0.0 **** 0.06
20681 C 4.670734032800201 29.844224304264188 29.3313922655027 C 0.0 **** -0.24
20682 H 4.0562810579687785 29.637185292276577 28.454854249009088 H 0.0 **** 0.06
20683 H 5.222646347327601 30.771791025598795 29.17649135080029 H 0.0 **** 0.06
20684 H 5.371734984050526 29.024579445530897 29.48465140407467 H 0.0 **** 0.06
20685 H 4.0295535931101405 29.944122171370346 30.207337780168643 H 0.0 **** 0.06
20686 C 15.188110724992214 74.82161347433568 2.2914685742889276 C 0.0 **** -0.24
20687 H 14.146839496402038 74.92551212092008 2.5932742384175356 H 0.0 **** 0.06
20688 H 15.36277607422943 73.80701558446455 1.9319763407321204 H 0.0 **** 0.06
20689 H 15.8359712511093 75.02185068243857 3.145007842600535 H 0.0 **** 0.06
20690 H 15.40798412535429 75.53173700856517 1.4943457987806141 H 0.0 **** 0.06
20691 C 13.845877866867244 45.17481326034891 108.12417829716375 C 0.0 **** -0.24
20692 H 14.47252836363764 45.43134368164155 107.27009296210949 H 0.0 **** 0.06
20693 H 13.034123071831676 45.897174331459695 108.20906114091181 H 0.0 **** 0.06
20694 H 14.446965676635056 45.19374431930416 109.03424017907949 H 0.0 **** 0.06
20695 H 13.43201656106168 44.17590273766848 107.98387827859176 H 0.0 **** 0.06
20696 C 32.259896064350706 14.264566072559575 75.16914317420168 C 0.0 **** -0.24
20697 H 32.83357383198809 14.379441656578479 74.24867320145354 H 0.0 **** 0.06
20698 H 31.903534945207703 15.241262208287225 75.49770812145623 H 0.0 **** 0.06
20699 H 32.89417408707016 13.829496524892619 75.94108961941477 H 0.0 **** 0.06
20700 H 31.40838761321396 13.609519105799166 74.98580392627 H 0.0 **** 0.06
20701 C 75.71640480434785 47.67371201214269 30.712642527126434 C 0.0 **** -0.24
20702 H 76.56976171559684 47.120763660127864 31.10622938565612 H 0.0 **** 0.06
20703 H 75.81870503330109 48.72863967311872 30.967165146682817 H 0.0 **** 0.06
20704 H 74.7980910507747 47.28147305255624 31.14995241084867 H 0.0 **** 0.06
20705 H 75.68006236678914 47.56268543213139 29.62905183899136 H 0.0 **** 0.06
20706 C 93.5242537512325 62.00069335741151 15.428565291282268 C 0.0 **** -0.24
20707 H 94.01138645395841 62.767922427414334 14.82756387700664 H 0.0 **** 0.06
20708 H 93.79414952919925 62.13519544892395 16.47638491720778 H 0.0 **** 0.06
20709 H 93.84799267375661 61.016012474747725 15.092456531849791 H 0.0 **** 0.06
20710 H 92.44280951615082 62.084377027177 15.317913057973726 H 0.0 **** 0.06
20711 C 58.410652028623886 82.15492646049324 123.60149694326513 C 0.0 **** -0.24
20712 H 58.25593360031368 83.13299076320743 124.05684393773747 H 0.0 **** 0.06
20713 H 57.61862992102323 81.47644540967894 123.92050319246792 H 0.0 **** 0.06
20714 H 59.3767412914102 81.75792623697589 123.91423303689417 H 0.0 **** 0.06
20715 H 58.39159108186777 82.25194635258157 122.51634660937668 H 0.0 **** 0.06
20716 C 40.345020424617246 96.19424744555671 15.056976459299307 C 0.0 **** -0.24
20717 H 41.193450539085745 96.80044955074322 15.37244555016639 H 0.0 **** 0.06
20718 H 40.64194600860725 95.14594931407505 15.017967185323897 H 0.0 **** 0.06
20719 H 40.01562085802948 96.5165619020741 14.069709155316758 H 0.0 **** 0.06
20720 H 39.52753034738171 96.31413246322927 15.768581742102242 H 0.0 **** 0.06
20721 C 84.87341115111516 35.929994461871004 38.12796381543467 C 0.0 **** -0.24
20722 H 84.37332743467275 36.07385306183353 37.1699907097676 H 0.0 **** 0.06
20723 H 84.92037968917506 36.879457915736296 38.660055446133356 H 0.0 **** 0.06
20724 H 85.88391163220157 35.55711259415385 37.95737241910808 H 0.0 **** 0.06
20725 H 84.31503017413348 35.20657194914096 38.7229823717509 H 0.0 **** 0.06
20726 C 67.10560768079351 15.29768015276036 71.51785175680621 C 0.0 **** -0.24
20727 H 67.7237767365625 15.522080267594266 70.64864518104679 H 0.0 **** 0.06
20728 H 66.95566519216747 14.220411717248847 71.58835303098695 H 0.0 **** 0.06
20729 H 66.14017582209398 15.79304151731382 71.41424713118315 H 0.0 **** 0.06
20730 H 67.60292450083483 15.65565062730738 72.41928261175961 H 0.0 **** 0.06
20731 C 116.99661994345311 24.257092455697034 80.50331854300272 C 0.0 **** -0.24
20732 H 116.45021877966698 23.322629108302976 80.63211879516126 H 0.0 **** 0.06
20733 H 116.30115614612485 25.048859416259916 80.22291398286396 H 0.0 **** 0.06
20734 H 117.74446431727745 24.135329182592216 79.720265594022 H 0.0 **** 0.06
20735 H 117.49041650345883 24.520542551916833 81.43894053038044 H 0.0 **** 0.06
20736 C 62.43931894567106 44.399468131239075 113.37515905400323 C 0.0 **** -0.24
20737 H 62.74070020659602 45.05483121811636 112.55797239793282 H 0.0 **** 0.06
20738 H 63.314010675659915 44.13494855785308 113.9689908647851 H 0.0 **** 0.06
20739 H 61.98881704867884 43.49424362742252 112.9670510355167 H 0.0 **** 0.06
20740 H 61.71395717364777 44.91438793426312 114.00580587784822 H 0.0 **** 0.06
20741 C 46.31759228575396 3.5272012934328636 17.8255510219943 C 0.0 **** -0.24
20742 H 47.31495066173738 3.3653548964274584 18.2332757212846 H 0.0 **** 0.06
20743 H 45.577140307224525 3.08034208445671 18.48996825328048 H 0.0 **** 0.06
20744 H 46.248684456614164 3.0634788186135786 16.84098934002384 H 0.0 **** 0.06
20745 H 46.130395916413065 4.596756176030773 17.737651849516794 H 0.0 **** 0.06
20746 C 21.949247866889493 85.40979966256748 34.15970969072916 C 0.0 **** -0.24
20747 H 20.9170649185578 85.0806970677915 34.0340061037964 H 0.0 **** 0.06
20748 H 22.338922223438203 85.02744327734621 35.102557450840635 H 0.0 **** 0.06
20749 H 21.98337004639339 86.49952362725583 34.16569806662966 H 0.0 **** 0.06
20750 H 22.553692332531256 85.03237936823774 33.33491924601557 H 0.0 **** 0.06
20751 C 49.088600278173004 127.39488122326455 21.606863795663735 C 0.0 **** -0.24
20752 H 48.655484158429545 128.34174509963523 21.928675345750314 H 0.0 **** 0.06
20753 H 48.294544109688985 126.66188698808493 21.463205377133093 H 0.0 **** 0.06
20754 H 49.78250995688529 127.03488791179285 22.36637326577619 H 0.0 **** 0.06
20755 H 49.622672543114845 127.5402840722504 20.667004557828967 H 0.0 **** 0.06
20756 C 72.8559878270511 106.55687560776863 80.9934807224982 C 0.0 **** -0.24
20757 H 73.17925367606651 105.51852376931294 81.06853491366495 H 0.0 **** 0.06
20758 H 72.74221640425662 106.97480595479936 81.99393151135249 H 0.0 **** 0.06
20759 H 71.90124591176968 106.60313386095254 80.4690948439324 H 0.0 **** 0.06
20760 H 73.6015791901591 107.13028574376483 80.44180069003272 H 0.0 **** 0.06
20761 C 102.28396666191784 65.29623756103598 64.92241961763955 C 0.0 **** -0.24
20762 H 101.59851312960573 64.72066505999904 64.30013894515773 H 0.0 **** 0.06
20763 H 102.93189808180982 64.61454819256971 65.47404991897842 H 0.0 **** 0.06
20764 H 101.71407624112899 65.90409616268732 65.62402079304266 H 0.0 **** 0.06
20765 H 102.89171007734618 65.9436918623917 64.29002230646644 H 0.0 **** 0.06
20766 C 78.51205656106782 103.01236349914376 33.6722432151237 C 0.0 **** -0.24
20767 H 77.72816870300835 103.02115939774627 34.43005451671306 H 0.0 **** 0.06
20768 H 78.35360930168338 102.17210176885052 32.99661970100209 H 0.0 **** 0.06
20769 H 79.48345333196164 102.91203717558246 34.157084888345054 H 0.0 **** 0.06
20770 H 78.48238172675411 103.94501341707411 33.108661794422176 H 0.0 **** 0.06
20771 C 45.641460992774654 102.86757403606804 130.24195211148634 C 0.0 **** -0.24
20772 H 46.207975217190466 101.93958034502968 130.3110950418881 H 0.0 **** 0.06
20773 H 46.30588953034092 103.67623678103777 129.93445275092324 H 0.0 **** 0.06
20774 H 45.20953696162641 103.10297081770588 131.21455606296263 H 0.0 **** 0.06
20775 H 44.844292088324835 102.75276449026056 129.50771716510573 H 0.0 **** 0.06
20776 C 91.05512806261035 25.75153910697213 60.4176516608382 C 0.0 **** -0.24
20777 H 90.80521152744086 25.660307004334612 59.36019483024552 H 0.0 **** 0.06
20778 H 90.20250473258474 26.163634855600293 60.95693173027803 H 0.0 **** 0.06
20779 H 91.91266408506331 26.41556087542068 60.531825210606996 H 0.0 **** 0.06
20780 H 91.30029753081021 24.768884490778902 60.81965571966765 H 0.0 **** 0.06
20781 C 31.432834612676288 49.071033422397505 33.70420019381693 C 0.0 **** -0.24
20782 H 32.00202426048041 49.79582586260517 33.12191542902205 H 0.0 **** 0.06
20783 H 30.879507865741175 49.58970736713832 34.48684334278016 H 0.0 **** 0.06
20784 H 32.11592513624157 48.35142760838309 34.155388928041354 H 0.0 **** 0.06
20785 H 30.734695397939163 48.548468968586235 33.04971066851574 H 0.0 **** 0.06
20786 C 102.00748160232655 68.90730931117668 51.14461366434708 C 0.0 **** -0.24
20787 H 101.86684573560768 69.3526648019594 52.13027110764209 H 0.0 **** 0.06
20788 H 101.42165375514129 67.99128601952418 51.0734484299884 H 0.0 **** 0.06
20789 H 103.06309209768628 68.67696013132553 50.99772168165131 H 0.0 **** 0.06
20790 H 101.67910849850688 69.60969895322285 50.37888895390127 H 0.0 **** 0.06
20791 C 125.02103890000913 37.44064137949625 68.4974907644831 C 0.0 **** -0.24
20792 H 126.03975123037355 37.78691421676971 68.67341634325393 H 0.0 **** 0.06
20793 H 125.00673946310948 36.78088126559474 67.62942415435893 H 0.0 **** 0.06
20794 H 124.37272632134211 38.297220687347775 68.31513365884004 H 0.0 **** 0.06
20795 H 124.66667942403998 36.896711221401844 69.37349467676708 H 0.0 **** 0.06
20796 C 25.639136089698965 22.762652043264552 72.96318822177138 C 0.0 **** -0.24
20797 H 24.98051195820871 23.223894405738598 73.69961489714524 H 0.0 **** 0.06
20798 H 26.31855252707362 23.51535735994962 72.56275782373355 H 0.0 **** 0.06
20799 H 25.041258485522633 22.344484551607877 72.15369531821392 H 0.0 **** 0.06
20800 H 26.214975231733177 21.968383145124314 73.43776344837777 H 0.0 **** 0.06
20801 C 40.505133488617034 121.80497725028727 90.99882186007723 C 0.0 **** -0.24
20802 H 39.62410539340726 122.21413057622641 91.4937719064355 H 0.0 **** 0.06
20803 H 40.62071330137056 122.2714784775768 90.02029163371319 H 0.0 **** 0.06
20804 H 40.38621345920731 120.7276165209638 90.87674218352076 H 0.0 **** 0.06
20805 H 41.38859745981843 122.00643911776578 91.60483176979481 H 0.0 **** 0.06
20806 C 43.504717582562364 127.43125294735307 84.79390240791622 C 0.0 **** -0.24
20807 H 42.8032502058349 127.93982386855313 85.45507681241179 H 0.0 **** 0.06
20808 H 44.032151616311296 126.65675118237485 85.35179566999349 H 0.0 **** 0.06
20809 H 44.22285864697602 128.1518912453473 84.40259520333882 H 0.0 **** 0.06
20810 H 42.95951665043373 126.9757143269018 83.96719751255338 H 0.0 **** 0.06
20811 C 124.80598514186018 120.96057765907653 60.52593904363722 C 0.0 **** -0.24
20812 H 125.02426730542649 121.08928925644273 59.46597552023405 H 0.0 **** 0.06
20813 H 124.46803999489556 119.94034451531977 60.70599138616079 H 0.0 **** 0.06
20814 H 124.02427042968887 121.66080143600462 60.8230338561042 H 0.0 **** 0.06
20815 H 125.70638784128529 121.15383712584693 61.10920419477635 H 0.0 **** 0.06
20816 C 85.80196798525218 28.774399121380952 60.236224204453464 C 0.0 **** -0.24
20817 H 85.71059041341195 27.69084207326415 60.309781792290465 H 0.0 **** 0.06
20818 H 86.8505686371286 29.05794876430994 60.32563189102066 H 0.0 **** 0.06
20819 H 85.22896562361024 29.242248248372533 61.03738586851355 H 0.0 **** 0.06
20820 H 85.41561125939872 29.106248403709515 59.2726823073844 H 0.0 **** 0.06
20821 C 129.1334960474088 42.63079862786765 99.07336853502221 C 0.0 **** -0.24
20822 H 129.43350240478696 41.83696745312845 99.75751744309238 H 0.0 **** 0.06
20823 H 129.39967686970513 43.59852897129164 99.50002330630697 H 0.0 **** 0.06
20824 H 128.05574739946357 42.58664485422946 98.9156479574067 H 0.0 **** 0.06
20825 H 129.64587813901952 42.50120296168943 98.11973387680406 H 0.0 **** 0.06
20826 C 83.5924538422074 99.78775194409614 59.378988661173935 C 0.0 **** -0.24
20827 H 82.57343732550859 100.07220833571681 59.641374584258685 H 0.0 **** 0.06
20828 H 83.73486921715643 98.72538323053843 59.57833277965929 H 0.0 **** 0.06
20829 H 84.29631310503022 100.3666797157496 59.976308677428946 H 0.0 **** 0.06
20830 H 83.76389714178329 99.98598396985066 58.32126058001222 H 0.0 **** 0.06
20831 C 82.12110319718028 42.88852262435276 87.61723249742174 C 0.0 **** -0.24
20832 H 82.15299883594278 41.83425587876446 87.34372614976333 H 0.0 **** 0.06
20833 H 82.7929108453639 43.0660085371885 88.45802604937191 H 0.0 **** 0.06
20834 H 81.10384483564495 43.159422021944366 87.90101312954648 H 0.0 **** 0.06
20835 H 82.43447994570954 43.49484924155886 86.76704219659584 H 0.0 **** 0.06
20836 C 29.14153274892064 109.39325459999989 68.9440991529276 C 0.0 **** -0.24
20837 H 29.800948502611433 110.18716283103048 69.29395772660405 H 0.0 **** 0.06
20838 H 29.688336806262875 108.74354283216022 68.25976043119681 H 0.0 **** 0.06
20839 H 28.28863154928009 109.83087519116671 68.42710096409485 H 0.0 **** 0.06
20840 H 28.791023590425993 108.81039849055826 69.79574435050739 H 0.0 **** 0.06
20841 C 79.44509402758689 112.76317964018175 53.799987790165645 C 0.0 **** -0.24
20842 H 80.05438984742564 111.87009963503071 53.93822732532388 H 0.0 **** 0.06
20843 H 78.73046681319012 112.59405201771433 52.99426123408327 H 0.0 **** 0.06
20844 H 80.08871421837146 113.60522438483692 53.5441573715694 H 0.0 **** 0.06
20845 H 78.90885035205703 112.98314762305331 54.72242218096882 H 0.0 **** 0.06
20846 C 70.92515224362202 111.74344136786091 2.610819042403932 C 0.0 **** -0.24
20847 H 71.13355434657151 110.84543073292993 3.1924219425619924 H 0.0 **** 0.06
20848 H 70.1848520089774 112.3496670821078 3.132622070869985 H 0.0 **** 0.06
20849 H 70.53944438391838 111.46092981391286 1.6320013585561526 H 0.0 **** 0.06
20850 H 71.84396875432301 112.31771968824214 2.488360269190963 H 0.0 **** 0.06
20851 C 42.79960127742189 104.76301319331179 76.3344925740594 C 0.0 **** -0.24
20852 H 42.8355377344848 103.92244250913356 77.02804358745433 H 0.0 **** 0.06
20853 H 41.870710272184574 105.31383112724481 76.47942540571779 H 0.0 **** 0.06
20854 H 42.84746590840996 104.39207824452724 75.31104904031247 H 0.0 **** 0.06
20855 H 43.64705294289491 105.42388929907194 76.52099728557718 H 0.0 **** 0.06
20856 C 46.35157777925605 120.1964352193512 79.70001397056154 C 0.0 **** -0.24
20857 H 45.93591143117297 119.69756963492262 80.57544248323808 H 0.0 **** 0.06
20858 H 46.793270286269745 119.4541331591023 79.03488099674917 H 0.0 **** 0.06
20859 H 47.11771127072197 120.90470388026768 80.01515748816274 H 0.0 **** 0.06
20860 H 45.55834723789863 120.72843383177576 79.17478139873197 H 0.0 **** 0.06
20861 C 75.67945724091098 56.63274736176518 96.91690353557505 C 0.0 **** -0.24
20862 H 76.3628153191597 55.974827323707274 96.3804677034596 H 0.0 **** 0.06
20863 H 75.53036806603583 56.25490718345952 97.92836370972225 H 0.0 **** 0.06
20864 H 74.72195714438763 56.66441221153133 96.39632269470928 H 0.0 **** 0.06
20865 H 76.1023677221634 57.63688737673152 96.9615138809591 H 0.0 **** 0.06
20866 C 108.47121097729796 27.13541258479532 77.76122022740498 C 0.0 **** -0.24
20867 H 108.76327494177221 27.061104489971 76.7141603606928 H 0.0 **** 0.06
20868 H 108.54009361820013 26.1528154110527 78.2291908559128 H 0.0 **** 0.06
20869 H 107.44651240032321 27.498965892153933 77.82825908702722 H 0.0 **** 0.06
20870 H 109.13673413379934 27.82954641008243 78.2747712486152 H 0.0 **** 0.06
20871 C 67.00141678505537 33.3121649227175 97.80688338577671 C 0.0 **** -0.24
20872 H 65.9330132196194 33.39535184786962 97.60396638489273 H 0.0 **** 0.06
20873 H 67.20625994820068 33.656010644153355 98.8212708501512 H 0.0 **** 0.06
20874 H 67.55447913894642 33.9260969800078 97.09537303187902 H 0.0 **** 0.06
20875 H 67.3099031912916 32.27191927015019 97.70626256386834 H 0.0 **** 0.06
20876 C 50.58492417525349 28.75301832257034 129.65796833050723 C 0.0 **** -0.24
20877 H 51.00743327594236 27.84807418844167 129.21983397193802 H 0.0 **** 0.06
20878 H 50.86862232670819 28.815459867523458 130.70812823860393 H 0.0 **** 0.06
20879 H 49.49867978058937 28.722825402757735 129.5746739485465 H 0.0 **** 0.06
20880 H 50.96528878029504 29.62526807978233 129.12553650665555 H 0.0 **** 0.06
20881 C 10.286571862858693 61.21831686122758 76.50301699240566 C 0.0 **** -0.24
20882 H 9.213624660817572 61.02499626295855 76.53234262753159 H 0.0 **** 0.06
20883 H 10.819711202794224 60.28050043338209 76.34973877218057 H 0.0 **** 0.06
20884 H 10.599746523064425 61.6655427594701 77.44651797699652 H 0.0 **** 0.06
20885 H 10.509219891587577 61.90218474136344 75.68452570008323 H 0.0 **** 0.06
20886 C 82.74077792889578 112.98755523533684 92.09921456589775 C 0.0 **** -0.24
20887 H 82.9655366705324 114.04698244014317 91.9770304414655 H 0.0 **** 0.06
20888 H 82.6327768783363 112.52322050221198 91.11965322217662 H 0.0 **** 0.06
20889 H 81.81201730241209 112.87619630191368 92.65960943446456 H 0.0 **** 0.06
20890 H 83.55312758856962 112.504392800173 92.6429218494328 H 0.0 **** 0.06
20891 C 63.279314015634014 19.879582947137017 112.63338964995681 C 0.0 **** -0.24
20892 H 62.60966682800799 20.68555515524688 112.33290849417524 H 0.0 **** 0.06
20893 H 63.117964616594605 19.646685750951896 113.68629315010217 H 0.0 **** 0.06
20894 H 64.31297885253693 20.190946705075568 112.48365298216368 H 0.0 **** 0.06
20895 H 63.07616612489571 18.99405019880789 112.02994682874728 H 0.0 **** 0.06
20896 C 129.25231494058215 97.22574696130847 82.20905142411159 C 0.0 **** -0.24
20897 H 129.93761843362574 98.02827167757138 81.93810010771806 H 0.0 **** 0.06
20898 H 129.77106516685598 96.26898811597535 82.14731654461228 H 0.0 **** 0.06
20899 H 128.40469210303223 97.22513784960833 81.5231252824271 H 0.0 **** 0.06
20900 H 128.89581189902754 97.38152563799578 83.22731762795843 H 0.0 **** 0.06
20901 C 71.67554054349426 123.79475314362352 81.80476195825645 C 0.0 **** -0.24
20902 H 71.94162582579469 123.19791631375564 80.93241003057636 H 0.0 **** 0.06
20903 H 70.62676497214528 123.62731873485289 82.05177620577075 H 0.0 **** 0.06
20904 H 71.83368763647212 124.85047460867047 81.58429164642985 H 0.0 **** 0.06
20905 H 72.29920084646557 123.50204863802517 82.64894281680802 H 0.0 **** 0.06
20906 C 115.41742425708127 121.18087553846951 46.24171252102002 C 0.0 **** -0.24
20907 H 114.45921478319185 120.70108642890023 46.04121935464494 H 0.0 **** 0.06
20908 H 116.17717725472077 120.76473128110317 45.578922284072235 H 0.0 **** 0.06
20909 H 115.70240711823705 121.00455720556411 47.27885767805574 H 0.0 **** 0.06
20910 H 115.33018048861685 122.25328737297218 46.0655140915882 H 0.0 **** 0.06
20911 C 75.60682156423056 7.312662194155603 125.50871493606061 C 0.0 **** -0.24
20912 H 75.30280098397498 8.300162687686967 125.85717122075175 H 0.0 **** 0.06
20913 H 75.1734692909435 7.125702968023987 124.52640006719191 H 0.0 **** 0.06
20914 H 75.25728189019932 6.556025068734492 126.21105013948596 H 0.0 **** 0.06
20915 H 76.69357375887851 7.271201042018099 125.44031850212055 H 0.0 **** 0.06
20916 C 118.3226981571995 61.23858327180801 9.851029506230276 C 0.0 **** -0.24
20917 H 119.05884180989926 62.00648317116941 10.092039514607109 H 0.0 **** 0.06
20918 H 117.52623898409938 61.67582138899297 9.248814354584937 H 0.0 **** 0.06
20919 H 117.90221054448412 60.83767784476629 10.77342448099958 H 0.0 **** 0.06
20920 H 118.80416302042156 60.43617726205804 9.292334926051296 H 0.0 **** 0.06
20921 C 59.13130233696097 47.7580811504632 85.43720424501919 C 0.0 **** -0.24
20922 H 60.12763961937185 48.00091745079725 85.06772214180279 H 0.0 **** 0.06
20923 H 58.48182461693085 48.62721094549687 85.33031837189765 H 0.0 **** 0.06
20924 H 59.19305363435416 47.47712036763047 86.48879984864902 H 0.0 **** 0.06
20925 H 58.72395411990635 46.92590246660411 84.86214720772398 H 0.0 **** 0.06
20926 C 108.65753971578096 14.608430673997034 83.97539065044742 C 0.0 **** -0.24
20927 H 109.09575123777472 13.666392849092418 83.64652617851328 H 0.0 **** 0.06
20928 H 109.3591305279802 15.124559350750559 84.63252619355114 H 0.0 **** 0.06
20929 H 107.73251815171852 14.409269059821895 84.516546110013 H 0.0 **** 0.06
20930 H 108.44442825437721 15.233557501902808 83.10824681825125 H 0.0 **** 0.06
20931 C 23.867872794782954 20.114643009669095 119.89333709568302 C 0.0 **** -0.24
20932 H 23.388783101954466 20.08654614624666 120.87211700693626 H 0.0 **** 0.06
20933 H 24.397231275033654 19.176172477634623 119.72218731010855 H 0.0 **** 0.06
20934 H 24.575441064747146 20.94340468790358 119.85888820169077 H 0.0 **** 0.06
20935 H 23.11029945265235 20.250680549466892 119.12149909986692 H 0.0 **** 0.06
20936 C 41.26884783548077 55.78010691633878 11.49495966898666 C 0.0 **** -0.24
20937 H 40.78495574919401 55.24231810116696 12.311030853394797 H 0.0 **** 0.06
20938 H 41.14378389470852 55.22083169273063 10.567376925581968 H 0.0 **** 0.06
20939 H 42.330410543384204 55.89186425731663 11.713514768420794 H 0.0 **** 0.06
20940 H 40.813582442794356 56.76493384384429 11.390303972585716 H 0.0 **** 0.06
20941 C 29.397578206806337 28.4086418244255 14.036292537478516 C 0.0 **** -0.24
20942 H 29.58079623582008 29.431541025847665 14.363296781589327 H 0.0 **** 0.06
20943 H 29.35049253993259 27.751543818969054 14.90567203844006 H 0.0 **** 0.06
20944 H 30.206122560535647 28.08693614486149 13.37986511933849 H 0.0 **** 0.06
20945 H 28.451598697441376 28.364165628532348 13.49593881385448 H 0.0 **** 0.06
20946 C 45.99775641640872 41.6564930599005 7.585826224976074 C 0.0 **** -0.24
20947 H 46.41513907854235 42.49620090560706 7.029552952647492 H 0.0 **** 0.06
20948 H 45.177806396935665 42.00754142337567 8.211560533955378 H 0.0 **** 0.06
20949 H 46.772004791201795 41.216068374333446 8.213591298654222 H 0.0 **** 0.06
20950 H 45.627426388974044 40.907130440413034 6.885247975919441 H 0.0 **** 0.06
20951 C 41.90043522409812 0.3599220016377558 124.31900347864921 C 0.0 **** -0.24
20952 H 41.506280726408164 -0.6421171821484108 124.49106517839486 H 0.0 **** 0.06
20953 H 42.211525686723775 0.7957120955435926 125.26921675539327 H 0.0 **** 0.06
20954 H 41.12636318908949 0.9820220499095456 123.87058019851867 H 0.0 **** 0.06
20955 H 42.75642035536467 0.3034222993453568 123.64665334647823 H 0.0 **** 0.06
20956 C 109.08112915980487 22.828709977568295 124.73892668097139 C 0.0 **** -0.24
20957 H 109.17027557289785 21.80026544063636 125.08767469112897 H 0.0 **** 0.06
20958 H 108.60272172906299 23.432830675850674 125.50895778941567 H 0.0 **** 0.06
20959 H 108.47868238701564 22.85271626140782 123.83076091192373 H 0.0 **** 0.06
20960 H 110.07356917312863 23.227495067139742 124.52685879379851 H 0.0 **** 0.06
20961 C 99.49901383496645 119.86770654525017 8.246417595260532 C 0.0 **** -0.24
20962 H 98.7654701852899 120.40857136522325 8.844834226821433 H 0.0 **** 0.06
20963 H 99.5730189697361 120.32768163104049 7.2605100518669055 H 0.0 **** 0.06
20964 H 99.18729541957947 118.8292346973532 8.141807688409543 H 0.0 **** 0.06
20965 H 100.47068142002897 119.90768802771643 8.740594848960615 H 0.0 **** 0.06
20966 C 112.69783536727566 73.94259348822179 45.78804520986415 C 0.0 **** -0.24
20967 H 112.46888363306647 73.08598552714963 46.42249726395268 H 0.0 **** 0.06
20968 H 112.46441515679616 74.86312501906482 46.321911398267304 H 0.0 **** 0.06
20969 H 112.10242584520265 73.889280187762 44.87701687918022 H 0.0 **** 0.06
20970 H 113.7570826942946 73.93004124857784 45.53047185383319 H 0.0 **** 0.06
20971 C 46.95883548520935 84.59380200217515 126.13698259458614 C 0.0 **** -0.24
20972 H 46.71009802072339 84.4666219003801 125.08385472469291 H 0.0 **** 0.06
20973 H 46.724977391362 85.61279882403369 126.44555891844063 H 0.0 **** 0.06
20974 H 48.02264310327601 84.40492986223676 126.28478718809322 H 0.0 **** 0.06
20975 H 46.37910974371442 83.89097575751966 126.73461103600489 H 0.0 **** 0.06
20976 C 40.75910545343564 22.643346851827886 107.67445335636904 C 0.0 **** -0.24
20977 H 41.234965110978195 23.265305800778265 108.43215519864717 H 0.0 **** 0.06
20978 H 40.455959755384356 21.696458590560837 108.12127074435307 H 0.0 **** 0.06
20979 H 41.46381321815839 22.4544819697862 106.86502426355685 H 0.0 **** 0.06
20980 H 39.883084187841916 23.157303001641452 107.28078191898629 H 0.0 **** 0.06
20981 C 119.61102745817315 18.226426125205336 99.19246387568629 C 0.0 **** -0.24
20982 H 118.96840517909416 17.50768003163887 99.70162118744588 H 0.0 **** 0.06
20983 H 119.46815156295959 18.141835764959524 98.11497492247472 H 0.0 **** 0.06
20984 H 120.65241834736963 18.020741113125325 99.43936900400209 H 0.0 **** 0.06
20985 H 119.35319374059218 19.235776488759853 99.51534801381948 H 0.0 **** 0.06
20986 C 116.44159428207837 58.74299301250315 39.38361312924678 C 0.0 **** -0.24
20987 H 116.90995149962924 59.184215713319276 40.2635441075424 H 0.0 **** 0.06
20988 H 115.43093814159832 58.42171893762159 39.63388210057806 H 0.0 **** 0.06
20989 H 117.02625704424128 57.88417024449936 39.05349740246206 H 0.0 **** 0.06
20990 H 116.4008948854651 59.48317901818396 38.58424229576164 H 0.0 **** 0.06
20991 C 91.82092459309183 88.59618984096478 6.4189063361044525 C 0.0 **** -0.24
20992 H 91.09856080907593 89.36947916977176 6.157290866004097 H 0.0 **** 0.06
20993 H 91.73993338808036 88.36928018228448 7.482549120515625 H 0.0 **** 0.06
20994 H 92.82756092108318 88.95112685603935 6.198267533508737 H 0.0 **** 0.06
20995 H 91.61665570417449 87.69657816216576 5.838973171067586 H 0.0 **** 0.06
20996 C 91.26227201326154 121.74917579146035 31.077651129362295 C 0.0 **** -0.24
20997 H 91.301506022436 122.79339387727202 31.386514704550905 H 0.0 **** 0.06
20998 H 91.83299419773317 121.14067256733122 31.778880380582308 H 0.0 **** 0.06
20999 H 91.6889544354465 121.65039468714349 30.079198872933347 H 0.0 **** 0.06
21000 H 90.22569484541944 121.41280701232179 31.064374346805863 H 0.0 **** 0.06
21001 C 30.004559208087095 60.85779675910881 60.55791546072476 C 0.0 **** -0.24
21002 H 30.643658450545914 61.20741159651992 59.746278739146504 H 0.0 **** 0.06
21003 H 29.54179481302073 59.91255180827265 60.27365046741839 H 0.0 **** 0.06
21004 H 29.228974017882095 61.59800180088335 60.7538429036923 H 0.0 **** 0.06
21005 H 30.605221608461555 60.71325722304802 61.45588843892972 H 0.0 **** 0.06
21006 C 123.30873743033952 39.03103651111121 11.818852644578783 C 0.0 **** -0.24
21007 H 122.85640449564096 38.78902450465756 10.857272404407222 H 0.0 **** 0.06
21008 H 124.3923820064796 39.0821373007056 11.706938903902465 H 0.0 **** 0.06
21009 H 123.05485901503452 38.25828696997132 12.54507328347254 H 0.0 **** 0.06
21010 H 122.93288248152751 39.99283339830458 12.165937938666335 H 0.0 **** 0.06
21011 C 30.68202249332711 65.60330251838934 110.35875378695644 C 0.0 **** -0.24
21012 H 29.968273603353822 64.83811100040987 110.0552214563281 H 0.0 **** 0.06
21013 H 31.663499173684684 65.36972191900566 109.94586262430815 H 0.0 **** 0.06
21014 H 30.742460271980377 65.6314733694619 111.44725928266155 H 0.0 **** 0.06
21015 H 30.353672892688422 66.57455826403532 109.9888020588977 H 0.0 **** 0.06
21016 C 105.75612482442261 123.22357630932285 7.9987942436629424 C 0.0 **** -0.24
21017 H 105.00506928750019 122.53088591482948 8.378918018302869 H 0.0 **** 0.06
21018 H 106.10719142968463 123.8596803617767 8.812196616989539 H 0.0 **** 0.06
21019 H 105.31686492341282 123.84357396535925 7.21737943237477 H 0.0 **** 0.06
21020 H 106.59477649663728 122.66139613499959 7.588714662429794 H 0.0 **** 0.06
21021 C 14.64753379816554 89.21259939438865 62.1868090420752 C 0.0 **** -0.24
21022 H 14.860497774293691 89.95494136748752 62.956080915475724 H 0.0 **** 0.06
21023 H 15.584591246456796 88.79900402525915 61.81242722379528 H 0.0 **** 0.06
21024 H 14.104840820246437 89.6839045088983 61.36885295780701 H 0.0 **** 0.06
21025 H 14.042362624024435 88.4127083534538 62.61258081143339 H 0.0 **** 0.06
21026 C 88.17217005334244 105.27054135881187 44.525159816652575 C 0.0 **** -0.24
21027 H 88.03629462161116 105.13254425875095 45.597348270528045 H 0.0 **** 0.06
21028 H 87.45303206079281 104.65363277009058 43.98575566066759 H 0.0 **** 0.06
21029 H 89.18454969009503 104.97729475855678 44.245634460633 H 0.0 **** 0.06
21030 H 88.01395844718634 106.31880093314794 44.27137756289329 H 0.0 **** 0.06
21031 C 70.95772590228775 105.48646146843953 27.056706593671777 C 0.0 **** -0.24
21032 H 70.23815662416592 104.86689416969327 27.591335297216517 H 0.0 **** 0.06
21033 H 71.91426238152218 104.96450828216896 27.00093527985962 H 0.0 **** 0.06
21034 H 71.08959273010771 106.42981149155665 27.586728621434816 H 0.0 **** 0.06
21035 H 70.59134951989348 105.68262770452088 26.049813085452172 H 0.0 **** 0.06
21036 C 110.70728888836497 68.84170579554419 39.80010654101875 C 0.0 **** -0.24
21037 H 109.9376735082709 68.29084358008808 39.259811776962636 H 0.0 **** 0.06
21038 H 111.27208322440693 69.45806157150443 39.10013980869704 H 0.0 **** 0.06
21039 H 111.38057392207638 68.13784188906718 40.290797292094226 H 0.0 **** 0.06
21040 H 110.23951455814863 69.47884985459055 40.54982116865287 H 0.0 **** 0.06
21041 C 85.99500447777775 58.97908752484237 35.387805415009666 C 0.0 **** -0.24
21042 H 85.86487236564732 58.615998887476664 34.36800259997443 H 0.0 **** 0.06
21043 H 85.49053476681748 58.304540288858675 36.079910052865046 H 0.0 **** 0.06
21044 H 85.56868751134614 59.97769615830883 35.475708953399874 H 0.0 **** 0.06
21045 H 87.05793225916472 59.01552206197569 35.6261025320203 H 0.0 **** 0.06
21046 C 89.04019631351352 53.174911095642926 82.05677686625057 C 0.0 **** -0.24
21047 H 88.66379672510999 54.00856695399665 81.46455841922875 H 0.0 **** 0.06
21048 H 89.04766247709719 53.452296097423755 83.1110677704213 H 0.0 **** 0.06
21049 H 90.05441378726064 52.932431277269075 81.73747294327404 H 0.0 **** 0.06
21050 H 88.39706660701205 52.30740116911386 81.91350404924344 H 0.0 **** 0.06
21051 C 99.27301975677221 127.51109628332043 102.87460765686342 C 0.0 **** -0.24
21052 H 99.43150091807497 127.06688075267752 103.85759483244001 H 0.0 **** 0.06
21053 H 98.23994929790804 127.3524786955941 102.56653410585048 H 0.0 **** 0.06
21054 H 99.94381883459033 127.0445394684319 102.15304489704815 H 0.0 **** 0.06
21055 H 99.47786121363849 128.58060292237286 102.92262845100726 H 0.0 **** 0.06
21056 C 97.19579301548355 79.06753551894822 63.07380304442121 C 0.0 **** -0.24
21057 H 97.91503493686916 79.00120461335437 62.25713066796486 H 0.0 **** 0.06
21058 H 97.72897441028198 79.1845800031283 64.01759258303203 H 0.0 **** 0.06
21059 H 96.59615781486414 78.15843758962889 63.10509184561336 H 0.0 **** 0.06
21060 H 96.54459740556447 79.92700237385664 62.91593776053283 H 0.0 **** 0.06
21061 C 22.808983183749262 0.8452633895289523 72.81896258609362 C 0.0 **** -0.24
21062 H 21.940390987386706 1.2544418845934047 73.33421590632676 H 0.0 **** 0.06
21063 H 22.89768830467557 -0.21740783414225007 73.04628126389504 H 0.0 **** 0.06
21064 H 23.706845645326382 1.3651827522443796 73.1511707363967 H 0.0 **** 0.06
21065 H 22.689253442792108 0.9772554700366527 71.74353273674127 H 0.0 **** 0.06
21066 C 116.48459640626552 42.848415036329726 71.21173169380228 C 0.0 **** -0.24
21067 H 115.95868669115129 43.118959052440374 70.2957527556431 H 0.0 **** 0.06
21068 H 116.98572864270807 43.728362034846896 71.61484485655689 H 0.0 **** 0.06
21069 H 117.22357816649287 42.07819028844824 70.99196763991529 H 0.0 **** 0.06
21070 H 115.77077111959298 42.4699276693928 71.94219534536808 H 0.0 **** 0.06
21071 C 25.937481108840082 83.71862342767058 26.758104800492276 C 0.0 **** -0.24
21072 H 26.013513576108977 83.54742407417923 27.832031395775005 H 0.0 **** 0.06
21073 H 25.40520937824178 82.88771532602195 26.29414461880168 H 0.0 **** 0.06
21074 H 26.937190957821933 83.7942048670481 26.330483323755914 H 0.0 **** 0.06
21075 H 25.393875292470085 84.64610562468452 26.576019644344626 H 0.0 **** 0.06
21076 C 40.64002488559606 124.00727272708454 101.02310088061358 C 0.0 **** -0.24
21077 H 40.79265569615612 122.93357143705336 100.9118135578351 H 0.0 **** 0.06
21078 H 39.81216535866048 124.18634999052261 101.7103646576985 H 0.0 **** 0.06
21079 H 40.408649880506914 124.44443203503977 100.05196350802146 H 0.0 **** 0.06
21080 H 41.54717857151121 124.46318027959279 101.419769463482 H 0.0 **** 0.06
21081 C 44.044746815163045 36.521831649996955 92.1541532127127 C 0.0 **** -0.24
21082 H 45.06418799981958 36.35281470945057 92.50216536956135 H 0.0 **** 0.06
21083 H 43.88653943055372 37.58805186233053 91.99506738876686 H 0.0 **** 0.06
21084 H 43.34059161236537 36.156927776071484 92.9022642432297 H 0.0 **** 0.06
21085 H 43.88785986841152 35.98655550307427 91.21743637800694 H 0.0 **** 0.06
21086 C 126.12904105336783 128.94732192702998 88.40494393784428 C 0.0 **** -0.24
21087 H 125.86358978142687 129.12378108789034 87.36263580146385 H 0.0 **** 0.06
21088 H 127.13893460861703 129.3132846446337 88.59048038599968 H 0.0 **** 0.06
21089 H 126.08531167979051 127.87831691666781 88.61441117867778 H 0.0 **** 0.06
21090 H 125.42736793485125 129.4728857255626 89.05244604776502 H 0.0 **** 0.06
21091 C 82.86537331799197 59.56626853367611 78.73116753947782 C 0.0 **** -0.24
21092 H 83.41686956437852 60.4206278920944 78.34124788700487 H 0.0 **** 0.06
21093 H 83.41690041132823 59.1248915529935 79.56118662727019 H 0.0 **** 0.06
21094 H 82.74069087893581 58.8231437236806 77.94242716653855 H 0.0 **** 0.06
21095 H 81.88536504830257 59.8942487726396 79.0785653744335 H 0.0 **** 0.06
21096 C 1.9850995980590476 17.388461110212106 94.90293431526655 C 0.0 **** -0.24
21097 H 1.5633934991305587 16.391550294814806 95.03107978392309 H 0.0 **** 0.06
21098 H 2.9732110565914738 17.426085013316396 95.36288184036448 H 0.0 **** 0.06
21099 H 1.3348862106122752 18.122004835815545 95.3786480640169 H 0.0 **** 0.06
21100 H 2.0696114799035 17.61279008400794 93.83983803689456 H 0.0 **** 0.06
21101 C 92.13802962489623 64.75539975434089 47.201195204107705 C 0.0 **** -0.24
21102 H 91.44137406906229 64.95484561383302 48.01488298487004 H 0.0 **** 0.06
21103 H 93.15798703664423 64.92193421813005 47.5488842415985 H 0.0 **** 0.06
21104 H 91.9240371900709 65.42484149891163 46.36782945175585 H 0.0 **** 0.06
21105 H 92.02979827364055 63.72156109669345 46.874710871076104 H 0.0 **** 0.06
21106 C 15.007964998385575 90.94186476659837 73.19270791155981 C 0.0 **** -0.24
21107 H 14.861538153350466 91.63271694902062 72.36221532918626 H 0.0 **** 0.06
21108 H 15.379560323028471 89.9906092054822 72.81187561741854 H 0.0 **** 0.06
21109 H 14.058155779790951 90.78398370033608 73.7042081755609 H 0.0 **** 0.06
21110 H 15.73134528948654 91.36154257635405 73.89132005328685 H 0.0 **** 0.06
21111 C 99.02694414230801 115.87670885967418 19.938084051701637 C 0.0 **** -0.24
21112 H 99.56164378324107 114.92683653862849 19.96473701349545 H 0.0 **** 0.06
21113 H 99.25480766596716 116.39613128942923 19.007203268495225 H 0.0 **** 0.06
21114 H 99.33746870033528 116.49110067754171 20.782842378106963 H 0.0 **** 0.06
21115 H 97.95521602238395 115.69105675236952 19.99803003609437 H 0.0 **** 0.06
21116 C 109.3922983778242 53.22452999895924 52.49298495166087 C 0.0 **** -0.24
21117 H 108.35657882536151 53.50728011249495 52.684416190144304 H 0.0 **** 0.06
21118 H 109.90687432038528 54.04680029152243 51.99401828478105 H 0.0 **** 0.06
21119 H 109.41497028391976 52.3407640332002 51.85587653361992 H 0.0 **** 0.06
21120 H 109.88883691149356 53.004681863974014 53.43816311464187 H 0.0 **** 0.06
21121 C 128.33445000694724 105.82993219936662 106.45368264144872 C 0.0 **** -0.24
21122 H 127.97172071561988 106.41395598950635 105.60768254776013 H 0.0 **** 0.06
21123 H 127.52115599337984 105.67247659686444 107.16276169375493 H 0.0 **** 0.06
21124 H 129.1468883381974 106.36599356806698 106.94425540390756 H 0.0 **** 0.06
21125 H 128.69847005947523 104.8655380438309 106.09919598334966 H 0.0 **** 0.06
21126 C 79.90939862784319 53.168288459008664 99.4244994478646 C 0.0 **** -0.24
21127 H 80.87762115477665 52.72542280548868 99.65737624988708 H 0.0 **** 0.06
21128 H 79.1370839021564 52.695459679072414 100.03205968235352 H 0.0 **** 0.06
21129 H 79.68543617346938 53.014709156190776 98.36822166108004 H 0.0 **** 0.06
21130 H 79.93759834916222 54.23629094333657 99.63825136846418 H 0.0 **** 0.06
21131 C 110.48593498556738 73.2627941403297 35.959320052364866 C 0.0 **** -0.24
21132 H 110.71473235304958 72.32760097009168 36.47127807879415 H 0.0 **** 0.06
21133 H 109.76334452292653 73.8303357074904 36.54652965362872 H 0.0 **** 0.06
21134 H 110.06681447423492 73.04603265309188 34.97729160871527 H 0.0 **** 0.06
21135 H 111.39892604420359 73.84610593830305 35.84436753062703 H 0.0 **** 0.06
21136 C 88.70138118662976 18.106471961823274 91.76888134574088 C 0.0 **** -0.24
21137 H 88.77203413348694 18.930287801586758 92.4791714956419 H 0.0 **** 0.06
21138 H 88.03241071739185 17.34259718606546 92.16495999553368 H 0.0 **** 0.06
21139 H 89.69099580528776 17.678252703445025 91.61054112682118 H 0.0 **** 0.06
21140 H 88.31031726935304 18.47691008475232 90.82138249690908 H 0.0 **** 0.06
21141 C 32.824364286183425 114.90101105456978 105.86223363499562 C 0.0 **** -0.24
21142 H 33.88024896032675 114.84509102110547 106.12990705921686 H 0.0 **** 0.06
21143 H 32.51422741786027 113.95880072621827 105.41100170006467 H 0.0 **** 0.06
21144 H 32.67388260095149 115.71225803356776 105.1498811398908 H 0.0 **** 0.06
21145 H 32.23199774937311 115.08807443952082 106.75739596418447 H 0.0 **** 0.06
21146 C 59.34464889237266 94.6981337169546 78.7303784010503 C 0.0 **** -0.24
21147 H 59.538172602338776 93.84830395535968 79.38481434980521 H 0.0 **** 0.06
21148 H 60.13322867492367 94.76403904643504 77.97997854042185 H 0.0 **** 0.06
21149 H 59.32636456806375 95.61356645030355 79.32037244431194 H 0.0 **** 0.06
21150 H 58.38269995102631 94.5642930343007 78.23609776628261 H 0.0 **** 0.06
21151 C 112.05992085130055 9.781137185604695 124.16422334871302 C 0.0 **** -0.24
21152 H 111.9299188339698 8.763163269004192 123.79582533808033 H 0.0 **** 0.06
21153 H 111.59552762578082 10.481029888922734 123.46846140011513 H 0.0 **** 0.06
21154 H 113.12360532882701 10.003021155563392 124.24906609723064 H 0.0 **** 0.06
21155 H 111.59034901574228 9.8759503150755 125.14360747341593 H 0.0 **** 0.06
21156 C 31.32110932419704 69.13553112038738 67.32212187572976 C 0.0 **** -0.24
21157 H 31.470383803210837 68.37897099008228 68.09349627076132 H 0.0 **** 0.06
21158 H 30.314942467093374 69.04229044442428 66.91306207807672 H 0.0 **** 0.06
21159 H 32.05228982799588 68.99353782201212 66.52684494523636 H 0.0 **** 0.06
21160 H 31.446355948455846 70.12682236661453 67.75743601910797 H 0.0 **** 0.06
21161 C 50.800562543422245 19.12199016234112 30.822855438892255 C 0.0 **** -0.24
21162 H 50.34773995016275 18.158447159667304 31.05273355932679 H 0.0 **** 0.06
21163 H 51.85391876227692 19.104406899986742 31.102900052164642 H 0.0 **** 0.06
21164 H 50.288860746115404 19.90678106829678 31.380135426930224 H 0.0 **** 0.06
21165 H 50.71186709541979 19.318740653831668 29.753976640376997 H 0.0 **** 0.06
21166 C 43.252552586216325 99.3058918523944 58.63411522251279 C 0.0 **** -0.24
21167 H 43.31206432622926 100.16248463663658 59.305384626593195 H 0.0 **** 0.06
21168 H 42.364074107465996 98.71941205363721 58.87211525206342 H 0.0 **** 0.06
21169 H 44.14095729189836 98.68613495755426 58.756801640960035 H 0.0 **** 0.06
21170 H 43.192510788814815 99.65476582950505 57.6031804997196 H 0.0 **** 0.06
21171 C 127.7038836601059 27.949283754730175 100.64504818271138 C 0.0 **** -0.24
21172 H 128.25394520418465 28.033532513011153 99.70803756962374 H 0.0 **** 0.06
21173 H 127.17441161172937 26.99715709480398 100.67198543619196 H 0.0 **** 0.06
21174 H 126.98634597185341 28.76673188727318 100.71943712605258 H 0.0 **** 0.06
21175 H 128.40169281983634 28.001246375570986 101.4821144024391 H 0.0 **** 0.06
21176 C 11.643084403505242 7.978837583023502 73.82140791840004 C 0.0 **** -0.24
21177 H 11.49973703279403 8.597133098887095 72.93528227637725 H 0.0 **** 0.06
21178 H 12.24876899433724 7.110188238868787 73.56512700596484 H 0.0 **** 0.06
21179 H 10.672397236281114 7.649139390173197 74.19272723434332 H 0.0 **** 0.06
21180 H 12.147565089857295 8.560314212315596 74.59251140481707 H 0.0 **** 0.06
21181 C 45.99066369312041 21.507746635891124 72.99226254481403 C 0.0 **** -0.24
21182 H 45.25887726940667 20.714589176869794 72.83457480991862 H 0.0 **** 0.06
21183 H 46.21597661496631 21.587502573115728 74.05579606781137 H 0.0 **** 0.06
21184 H 45.58322212242959 22.453166525028394 72.63473626022719 H 0.0 **** 0.06
21185 H 46.90308858044628 21.273784156296017 72.4439324956954 H 0.0 **** 0.06
21186 C 6.275786462714848 42.735584735852825 57.3654658450468 C 0.0 **** -0.24
21187 H 5.814253322217155 43.03940171702867 58.30455786501679 H 0.0 **** 0.06
21188 H 6.020621424708565 43.45462268235472 56.58650259198831 H 0.0 **** 0.06
21189 H 5.909663627568136 41.749296580977536 57.082536268574486 H 0.0 **** 0.06
21190 H 7.358504898071203 42.70115326497243 57.48707070348371 H 0.0 **** 0.06
21191 C 74.14486786781737 122.31529797908834 71.43541584207759 C 0.0 **** -0.24
21192 H 75.14552289608433 122.43714825705719 71.02168470875858 H 0.0 **** 0.06
21193 H 74.15741950498914 122.56542304543353 72.49609456725824 H 0.0 **** 0.06
21194 H 73.82349784042134 121.2812085804064 71.30928926099836 H 0.0 **** 0.06
21195 H 73.45372011005327 122.97698232731904 70.91343685526124 H 0.0 **** 0.06
21196 C 69.0422091255501 114.46738835698379 93.57148614641372 C 0.0 **** -0.24
21197 H 68.84282480984675 114.28839372750527 92.51509688705787 H 0.0 **** 0.06
21198 H 69.19399789748962 115.53419991372252 93.73715076850661 H 0.0 **** 0.06
21199 H 69.93722377938585 113.92144768553733 93.87084054612725 H 0.0 **** 0.06
21200 H 68.19293633542773 114.12489107614913 94.16394196120066 H 0.0 **** 0.06
21201 C 126.69541838184023 37.95938011581543 34.690044727797925 C 0.0 **** -0.24
21202 H 127.00500590104016 38.203256897461735 35.706591424074446 H 0.0 **** 0.06
21203 H 127.50593810565434 38.190134699200804 33.998488086504665 H 0.0 **** 0.06
21204 H 125.81517965394168 38.54821957117566 34.42831307774716 H 0.0 **** 0.06
21205 H 126.45462297296005 36.89827778103394 34.628377438010574 H 0.0 **** 0.06
21206 C 55.03521972837311 40.702760621438344 68.88562744206578 C 0.0 **** -0.24
21207 H 54.12801544513103 40.38612733819583 69.3992305612015 H 0.0 **** 0.06
21208 H 55.71607886837202 39.854960221164234 68.79421121113046 H 0.0 **** 0.06
21209 H 55.51755123482832 41.49589041914327 69.45620685315501 H 0.0 **** 0.06
21210 H 54.78049940327047 41.07214406032277 67.89201890361824 H 0.0 **** 0.06
21211 C 29.032887853661983 55.71645276132364 83.75637583198122 C 0.0 **** -0.24
21212 H 29.73802960366396 55.52350653509242 84.565487933309 H 0.0 **** 0.06
21213 H 28.060684183256086 55.29764476570401 84.01507898699859 H 0.0 **** 0.06
21214 H 29.397318668211895 55.252808665251436 82.83921998334895 H 0.0 **** 0.06
21215 H 28.938518696157317 56.79199458674198 83.60670715388505 H 0.0 **** 0.06
21216 C 39.438657341977525 103.13722612592642 45.28896628924635 C 0.0 **** -0.24
21217 H 38.944054146558884 103.32120930189816 46.242612622892494 H 0.0 **** 0.06
21218 H 39.89475385052414 102.14719405739697 45.3010062516142 H 0.0 **** 0.06
21219 H 40.2101748931162 103.89158202383226 45.129403105690415 H 0.0 **** 0.06
21220 H 38.705817667669464 103.1915161906897 44.48433529755342 H 0.0 **** 0.06
21221 C 106.86274428683137 98.54293702307572 104.60609251908845 C 0.0 **** -0.24
21222 H 106.54779504588979 97.5349800903156 104.87440057752559 H 0.0 **** 0.06
21223 H 107.90829970436774 98.68211219885856 104.88247387872553 H 0.0 **** 0.06
21224 H 106.24708014232648 99.26946051615582 105.13506006586708 H 0.0 **** 0.06
21225 H 106.7489330775115 98.68463254140872 103.53059033418431 H 0.0 **** 0.06
21226 C 82.99034983196431 39.84401131217487 63.80565626696357 C 0.0 **** -0.24
21227 H 82.64975911129414 39.025415121894895 63.17192470994296 H 0.0 **** 0.06
21228 H 82.5008302238397 39.778439998013624 64.77824380736855 H 0.0 **** 0.06
21229 H 82.74074638869311 40.79463739761874 63.33624436064494 H 0.0 **** 0.06
21230 H 84.07039702711037 39.775774673307524 63.93838653735726 H 0.0 **** 0.06
21231 C 84.24688218922607 28.60511828238856 80.121259305253 C 0.0 **** -0.24
21232 H 83.85767550742825 29.621827075690817 80.07829655622254 H 0.0 **** 0.06
21233 H 85.32763712934454 28.634780648486128 80.259987010201 H 0.0 **** 0.06
21234 H 84.01409829201592 28.087038917246616 79.191183033008 H 0.0 **** 0.06
21235 H 83.78788545433098 28.075670866108624 80.95635206387823 H 0.0 **** 0.06
21236 C 34.82546515443504 65.05053510317754 94.8511095469301 C 0.0 **** -0.24
21237 H 34.21398177597741 64.89756932280287 95.74067407374969 H 0.0 **** 0.06
21238 H 34.19370858202317 65.39213175357813 94.0307371490573 H 0.0 **** 0.06
21239 H 35.30391730163603 64.1113159594843 94.57311957373332 H 0.0 **** 0.06
21240 H 35.5891176496555 65.80006934951416 95.0582948215353 H 0.0 **** 0.06
21241 C 7.441413737076246 11.283846827643998 42.38682765851868 C 0.0 **** -0.24
21242 H 8.198485083810638 10.499208356429122 42.39463524086806 H 0.0 **** 0.06
21243 H 7.282364863508818 11.62438735721743 41.363388307020465 H 0.0 **** 0.06
21244 H 7.777503781403979 12.118953345126187 43.000257340922765 H 0.0 **** 0.06
21245 H 6.506897225668794 10.890741601560862 42.78836557177363 H 0.0 **** 0.06
21246 C 4.593636319324901 122.47179183865444 22.64681903299109 C 0.0 **** -0.24
21247 H 3.5592077473533834 122.80972110055109 22.716078438809888 H 0.0 **** 0.06
21248 H 4.8877293978436995 122.41509154921631 21.59797686107055 H 0.0 **** 0.06
21249 H 4.685100234878178 121.48684169588243 23.104334083924385 H 0.0 **** 0.06
21250 H 5.24150237372173 123.17650641407359 23.16893344591577 H 0.0 **** 0.06
21251 C 23.338105469012163 18.118071502210483 60.65961512967175 C 0.0 **** -0.24
21252 H 23.04706701721949 18.57045985891355 59.71094082662134 H 0.0 **** 0.06
21253 H 23.348077035206472 17.032390557722607 60.5557835008012 H 0.0 **** 0.06
21254 H 22.624871517011343 18.403435209901886 61.43263798259912 H 0.0 **** 0.06
21255 H 24.33344950638653 18.465432817046036 60.93695579423266 H 0.0 **** 0.06
21256 C 67.49982928335314 34.82362738170036 54.69924594595713 C 0.0 **** -0.24
21257 H 68.00633830272258 35.50021675167173 54.011054186432006 H 0.0 **** 0.06
21258 H 67.12760983244516 35.3873096496379 55.5550002790994 H 0.0 **** 0.06
21259 H 68.20075729183878 34.06233373025066 55.04159718540947 H 0.0 **** 0.06
21260 H 66.66528085010177 34.34442292452661 54.1877506381588 H 0.0 **** 0.06
21261 C 35.787679800878834 24.684358847929786 70.56869725448729 C 0.0 **** -0.24
21262 H 34.73932128325811 24.96964799378094 70.66537758339179 H 0.0 **** 0.06
21263 H 36.4031751818805 25.361028488477757 71.16247092286072 H 0.0 **** 0.06
21264 H 36.08489865008141 24.744990900616642 69.52239466696449 H 0.0 **** 0.06
21265 H 35.92021310816091 23.664153466757625 70.92645174509133 H 0.0 **** 0.06
21266 C 75.82296292801576 72.45044856386433 29.301966955802015 C 0.0 **** -0.24
21267 H 76.27264313997082 73.40410183206961 29.021496377447477 H 0.0 **** 0.06
21268 H 74.74801610943251 72.49133301411779 29.12653816545418 H 0.0 **** 0.06
21269 H 76.01201630002939 72.25588121869218 30.35705072852886 H 0.0 **** 0.06
21270 H 76.25932206658834 71.65346348018552 28.700765751011147 H 0.0 **** 0.06
21271 C 49.24627924433376 71.41024763965169 23.05114213063146 C 0.0 **** -0.24
21272 H 49.22894874091736 71.89369200969239 22.07443661866526 H 0.0 **** 0.06
21273 H 48.698062944062116 70.46934929113198 22.99994960142081 H 0.0 **** 0.06
21274 H 48.77854854678411 72.06388673599466 23.788082054618798 H 0.0 **** 0.06
21275 H 50.278638726911836 71.21500893549526 23.34158872584416 H 0.0 **** 0.06
21276 C 37.67798953575206 118.3104364940404 99.45068115856172 C 0.0 **** -0.24
21277 H 38.09716332667554 119.31171756882037 99.35271688552263 H 0.0 **** 0.06
21278 H 38.139902981725186 117.65050521615206 98.71466194268697 H 0.0 **** 0.06
21279 H 36.60257396016718 118.34801440231121 99.27966169021904 H 0.0 **** 0.06
21280 H 37.87449421630842 117.93033683748263 100.45287505026394 H 0.0 **** 0.06
21281 C 66.21537538574145 97.9018198294264 1.2838507174768736 C 0.0 **** -0.24
21282 H 65.76765590561439 97.21559671713948 2.001855250080247 H 0.0 **** 0.06
21283 H 66.51655452701425 98.81621173649705 1.7955460033891697 H 0.0 **** 0.06
21284 H 65.48711994589654 98.14231046068134 0.509205153688022 H 0.0 **** 0.06
21285 H 67.08948104785446 97.43467981499761 0.8302848871528496 H 0.0 **** 0.06
21286 C 70.82088103073933 109.92081783526632 17.42798313939892 C 0.0 **** -0.24
21287 H 69.91000169829186 109.71903626839676 16.865634111150428 H 0.0 **** 0.06
21288 H 71.45001918152388 109.03057326380414 17.433010577576283 H 0.0 **** 0.06
21289 H 70.56345449420466 110.19019989282049 18.452278189733022 H 0.0 **** 0.06
21290 H 71.36121486202322 110.74467145179787 16.96143083395026 H 0.0 **** 0.06
21291 C 73.50815714871243 83.16140314916254 43.122262031126105 C 0.0 **** -0.24
21292 H 73.0966098967831 83.75766623710237 43.93655599029227 H 0.0 **** 0.06
21293 H 74.57142953880833 83.37684607840973 43.01518889450042 H 0.0 **** 0.06
21294 H 72.99162124153952 83.40892569102229 42.194455067214825 H 0.0 **** 0.06
21295 H 73.37187831183866 82.10259827411042 43.34205233155967 H 0.0 **** 0.06
21296 C 26.784548136013477 76.19837071258172 71.9857603801817 C 0.0 **** -0.24
21297 H 26.881325788020803 76.09831038323524 70.90387240792369 H 0.0 **** 0.06
21298 H 25.866119943711794 76.73848328435346 72.21922906467549 H 0.0 **** 0.06
21299 H 27.639716453994367 76.74855572903753 72.37694193108388 H 0.0 **** 0.06
21300 H 26.749143959003398 75.20801206997056 72.43976894580796 H 0.0 **** 0.06
21301 C 44.26640715189703 57.02201666905785 92.58902247459588 C 0.0 **** -0.24
21302 H 43.55051440358095 57.798755963551244 92.8585370960974 H 0.0 **** 0.06
21303 H 44.54184260763294 57.12961809559725 91.53941265685148 H 0.0 **** 0.06
21304 H 43.81608931754964 56.042063009170974 92.74797893637384 H 0.0 **** 0.06
21305 H 45.15718227882469 57.11762960791181 93.21016120906108 H 0.0 **** 0.06
21306 C 129.37566360863133 101.43194697628891 69.38194171139736 C 0.0 **** -0.24
21307 H 130.1367827902844 101.33645558667075 70.1561551445626 H 0.0 **** 0.06
21308 H 129.48706186475036 100.6199245546351 68.66233447819931 H 0.0 **** 0.06
21309 H 129.49419163832923 102.38835931430714 68.8727010852237 H 0.0 **** 0.06
21310 H 128.38685013899953 101.38243360029858 69.83737643864174 H 0.0 **** 0.06
21311 C 75.97384272441835 74.17505956132904 49.19026001974348 C 0.0 **** -0.24
21312 H 75.74877026511078 75.088538127027 48.639690519392104 H 0.0 **** 0.06
21313 H 77.0086826208341 74.20454103546459 49.533084709117674 H 0.0 **** 0.06
21314 H 75.8316009984961 73.31390721582127 48.53784576256825 H 0.0 **** 0.06
21315 H 75.30794912208174 74.09567728760365 50.04921322094299 H 0.0 **** 0.06
21316 C 76.48077908796728 33.444728389481554 41.73047337419621 C 0.0 **** -0.24
21317 H 76.32465969158875 34.47100967257292 42.063924977355924 H 0.0 **** 0.06
21318 H 76.66388093826981 32.80629685855282 42.595438361100946 H 0.0 **** 0.06
21319 H 77.3402043558882 33.406147571333406 41.062102124624005 H 0.0 **** 0.06
21320 H 75.59375139534353 33.094954599510864 41.20251634317398 H 0.0 **** 0.06
21321 C 27.692463850834088 89.63200010643551 51.44954398504541 C 0.0 **** -0.24
21322 H 26.684089882481913 89.68511307021123 51.8600320174524 H 0.0 **** 0.06
21323 H 27.66709770547297 89.89217693766228 50.390803171629045 H 0.0 **** 0.06
21324 H 28.07915995005618 88.62028180634982 51.56698593035287 H 0.0 **** 0.06
21325 H 28.337356382656537 90.33251667070144 51.98024695639492 H 0.0 **** 0.06
21326 C 79.36500402180863 27.695462912516604 4.774164271226539 C 0.0 **** -0.24
21327 H 78.74072956684047 26.875957699045784 4.4173994932430105 H 0.0 **** 0.06
21328 H 79.33102026023008 27.729965667634346 5.863675264716619 H 0.0 **** 0.06
21329 H 78.994817038702 28.637298493482348 4.368825127001742 H 0.0 **** 0.06
21330 H 80.39316799061835 27.538290859884086 4.447655025987842 H 0.0 **** 0.06
21331 C 85.22409794665754 117.14530904551589 71.47493954204238 C 0.0 **** -0.24
21332 H 85.58081201124708 116.69930359898046 72.4041040949192 H 0.0 **** 0.06
21333 H 85.64094807612372 116.60090629689694 70.62666236058088 H 0.0 **** 0.06
21334 H 85.53935152764222 118.18760879771378 71.42861605279967 H 0.0 **** 0.06
21335 H 84.13626272524854 117.09218082543208 71.44160263855024 H 0.0 **** 0.06
21336 C 115.2766529529001 15.365610443965437 43.757742694826106 C 0.0 **** -0.24
21337 H 114.5628973263783 14.664311232075733 43.327435017428314 H 0.0 **** 0.06
21338 H 115.24268417495713 15.29663048044867 44.84522298433774 H 0.0 **** 0.06
21339 H 115.02188469232746 16.379315952860964 43.44910905253096 H 0.0 **** 0.06
21340 H 116.28086443837321 15.122011358772767 43.40933014101364 H 0.0 **** 0.06
21341 C 78.89624961178566 22.51288660283035 16.620994978668236 C 0.0 **** -0.24
21342 H 79.05064501082836 22.138010415942347 17.6335355749751 H 0.0 **** 0.06
21343 H 79.85997235807378 22.611602545818698 16.121093870845243 H 0.0 **** 0.06
21344 H 78.40770874356303 23.485509788141883 16.66513505095773 H 0.0 **** 0.06
21345 H 78.26850028546323 21.815315695285733 16.06728653988216 H 0.0 **** 0.06
21346 C 69.80547201772671 16.622876091318574 41.421105909716985 C 0.0 **** -0.24
21347 H 69.96557004825166 15.694355380379477 40.874056258869274 H 0.0 **** 0.06
21348 H 70.67062333632398 17.273547058069596 41.29324675094023 H 0.0 **** 0.06
21349 H 69.67067887414296 16.40127552750505 42.479963543189086 H 0.0 **** 0.06
21350 H 68.91521605546544 17.121379685095235 41.03740945614412 H 0.0 **** 0.06
21351 C 30.08078682766461 67.04124869801183 128.9411034990557 C 0.0 **** -0.24
21352 H 30.0989203768805 65.95495410312265 128.85308817276513 H 0.0 **** 0.06
21353 H 31.099915209739578 67.41410690638845 129.0513652880677 H 0.0 **** 0.06
21354 H 29.493412827486054 67.32487473672687 129.8143437397809 H 0.0 **** 0.06
21355 H 29.63181376459417 67.46998062001148 128.04560556343586 H 0.0 **** 0.06
21356 C 47.986600010425775 88.40122158666239 80.78006283730807 C 0.0 **** -0.24
21357 H 47.64802592883473 88.45269610269378 81.81482775289858 H 0.0 **** 0.06
21358 H 47.66334018574574 87.45851713806721 80.3389246950021 H 0.0 **** 0.06
21359 H 49.07489240062105 88.46236207043867 80.74961555340167 H 0.0 **** 0.06
21360 H 47.56014152650147 89.23131103544986 80.21688334792996 H 0.0 **** 0.06
21361 C 73.93324154570234 128.71671218772255 10.731769342343426 C 0.0 **** -0.24
21362 H 73.73490551976519 129.52025289099805 11.441532448222517 H 0.0 **** 0.06
21363 H 73.15557455298534 128.70842120476803 9.967208128547298 H 0.0 **** 0.06
21364 H 73.93792489863867 127.76193416298452 11.256101653318467 H 0.0 **** 0.06
21365 H 74.90361663965082 128.87908735966758 10.26217486497984 H 0.0 **** 0.06
21366 C 83.52883465235433 47.394916614569524 46.86704090463542 C 0.0 **** -0.24
21367 H 83.96364501449641 47.94233531573701 47.70309422973904 H 0.0 **** 0.06
21368 H 82.49415661905644 47.70845771497966 46.72696293701975 H 0.0 **** 0.06
21369 H 83.55861506212952 46.325658610177186 47.07819950666894 H 0.0 **** 0.06
21370 H 84.09813890491974 47.60256806672163 45.96162997574996 H 0.0 **** 0.06
21371 C 125.03078620282835 52.365728830546615 87.28859624330752 C 0.0 **** -0.24
21372 H 124.92089534011362 53.18831005136869 86.58199055568578 H 0.0 **** 0.06
21373 H 124.08663581647671 52.204310694094815 87.80823137387812 H 0.0 **** 0.06
21374 H 125.8076637394809 52.61028410976897 88.01358901989613 H 0.0 **** 0.06
21375 H 125.30894940747274 51.459128696835194 86.75010115102116 H 0.0 **** 0.06
21376 C 2.4315562441512384 78.31744469401752 111.14671254636399 C 0.0 **** -0.24
21377 H 2.6341170405126206 79.3628896350824 111.3805212275588 H 0.0 **** 0.06
21378 H 2.7681215688589873 78.10118659424958 110.13261802190046 H 0.0 **** 0.06
21379 H 1.3612210990674782 78.12995887156224 111.22294986054163 H 0.0 **** 0.06
21380 H 2.963792809619747 77.67854245540477 111.85109497863552 H 0.0 **** 0.06
21381 C 89.98116741586546 5.21057572012441 125.94638421316614 C 0.0 **** -0.24
21382 H 90.81742573745473 5.410293954406498 126.61592814948455 H 0.0 **** 0.06
21383 H 89.52709673459857 6.154261133066967 125.64201897558524 H 0.0 **** 0.06
21384 H 89.24076841440184 4.599940339817607 126.46119981961692 H 0.0 **** 0.06
21385 H 90.34190753728996 4.679469478064874 125.06418903812948 H 0.0 **** 0.06
21386 C 53.00170847948816 46.883235300729126 97.12401267220683 C 0.0 **** -0.24
21387 H 52.38958475157942 47.54556635323789 96.51297624757298 H 0.0 **** 0.06
21388 H 53.41678765624792 47.44253540884617 97.96265690794588 H 0.0 **** 0.06
21389 H 53.81398651773216 46.47978751955384 96.51915255288226 H 0.0 **** 0.06
21390 H 52.3874818236641 46.06506779690736 97.50027192924198 H 0.0 **** 0.06
21391 C 36.335132856998115 1.0391670018004788 29.166403459552612 C 0.0 **** -0.24
21392 H 36.98754778562213 0.37428027523594665 28.600319653741224 H 0.0 **** 0.06
21393 H 36.26492515581987 0.6884235780116796 30.19604291066861 H 0.0 **** 0.06
21394 H 35.34227036134152 1.043203032714871 28.715188082245675 H 0.0 **** 0.06
21395 H 36.74527257654563 2.048087140414168 29.152804406559255 H 0.0 **** 0.06
21396 C 37.942667917092265 98.37548512191495 19.01854568266384 C 0.0 **** -0.24
21397 H 37.25300944280248 98.9739877017202 18.42320264735656 H 0.0 **** 0.06
21398 H 37.41960197708587 97.50327865485923 19.41177134222073 H 0.0 **** 0.06
21399 H 38.32501874071298 98.97419599059918 19.844826853357404 H 0.0 **** 0.06
21400 H 38.773831689455484 98.0490195557403 18.392090907352497 H 0.0 **** 0.06
21401 C 11.647790449969364 57.955587207692986 24.47969696728768 C 0.0 **** -0.24
21402 H 10.607566004822274 58.032859659274436 24.795490448266747 H 0.0 **** 0.06
21403 H 12.300390186425886 58.234556450198625 25.307932624498108 H 0.0 **** 0.06
21404 H 11.822712605917019 58.62365955253739 23.637239864559774 H 0.0 **** 0.06
21405 H 11.859585041893354 56.92936828805807 24.18000840846537 H 0.0 **** 0.06
21406 C 55.15163885835602 125.21454990591187 57.643091479521075 C 0.0 **** -0.24
21407 H 55.62477226662665 125.01454616922834 56.68139777203706 H 0.0 **** 0.06
21408 H 55.91746388389018 125.29193349036242 58.41483773242514 H 0.0 **** 0.06
21409 H 54.46893641259706 124.40056765078356 57.88841732303645 H 0.0 **** 0.06
21410 H 54.59615211312408 126.15020740100843 57.58583807430544 H 0.0 **** 0.06
21411 C 42.6606647643311 56.573900833252424 41.94656312111351 C 0.0 **** -0.24
21412 H 42.94694398109948 55.74898107907387 41.29434455035897 H 0.0 **** 0.06
21413 H 41.69604234646488 56.97054629435354 41.62765636608202 H 0.0 **** 0.06
21414 H 43.414398070908646 57.36059864844094 41.888681811953234 H 0.0 **** 0.06
21415 H 42.58658095929104 56.21677812814613 42.97342455166961 H 0.0 **** 0.06
21416 C 100.47476475605909 42.729995942283765 74.75448849798421 C 0.0 **** -0.24
21417 H 100.3272085696167 43.78901330221305 74.96626638867977 H 0.0 **** 0.06
21418 H 99.5150100319554 42.214610849542424 74.79505402325378 H 0.0 **** 0.06
21419 H 101.14879960994696 42.30161681011593 75.49681244871107 H 0.0 **** 0.06
21420 H 100.90714479290568 42.61556406488933 73.76054417783868 H 0.0 **** 0.06
21421 C 35.403867437945024 24.11955728000939 74.31363478400623 C 0.0 **** -0.24
21422 H 36.296393642446674 23.707142109582463 74.78442474141653 H 0.0 **** 0.06
21423 H 34.73177613813559 23.30737553541374 74.03658322170723 H 0.0 **** 0.06
21424 H 35.688951908161044 24.676008472311253 73.42111455926938 H 0.0 **** 0.06
21425 H 34.899455749164076 24.78698257848913 75.01292072895068 H 0.0 **** 0.06
21426 C 57.63991769490573 96.10183277564585 27.85568462825023 C 0.0 **** -0.24
21427 H 58.133872864984056 96.34836346435821 28.79518787029309 H 0.0 **** 0.06
21428 H 57.34542765154393 97.02150234104616 27.348441027835747 H 0.0 **** 0.06
21429 H 56.75448264121232 95.49870452613675 28.05801995223527 H 0.0 **** 0.06
21430 H 58.32545022338681 95.54003151756811 27.22153011436035 H 0.0 **** 0.06
21431 C 124.06193802015304 28.989211282989032 62.9955513395641 C 0.0 **** -0.24
21432 H 124.60128366024543 29.889953523423543 62.69901081629729 H 0.0 **** 0.06
21433 H 124.0040111438577 28.94335193654487 64.08299138866774 H 0.0 **** 0.06
21434 H 124.58956732281888 28.1114697726872 62.62211106365571 H 0.0 **** 0.06
21435 H 123.05599815304438 29.01415298435424 62.578066856287094 H 0.0 **** 0.06
21436 C 77.68817408300129 66.73714017521962 51.17802473136091 C 0.0 **** -0.24
21437 H 78.18277774549765 67.70730271255465 51.12818146987506 H 0.0 **** 0.06
21438 H 77.32345677823429 66.5666825200469 52.19166274627446 H 0.0 **** 0.06
21439 H 78.39621786069722 65.95416982548107 50.909095686811 H 0.0 **** 0.06
21440 H 76.84832643831555 66.72248178826808 50.48327402599152 H 0.0 **** 0.06
21441 C 39.83677626358343 31.59704197951575 126.42472157696734 C 0.0 **** -0.24
21442 H 40.83383912198809 31.960570898399226 126.17560139524683 H 0.0 **** 0.06
21443 H 39.661258517272245 31.720290871509945 127.4937738413197 H 0.0 **** 0.06
21444 H 39.759484476060095 30.541430214364894 126.1635984807522 H 0.0 **** 0.06
21445 H 39.09301594986374 32.16395000549812 125.86569358298124 H 0.0 **** 0.06
21446 C 52.982546436481186 24.152546494016946 86.42428774678282 C 0.0 **** -0.24
21447 H 53.13772520972452 24.791853124838667 85.55436123745787 H 0.0 **** 0.06
21448 H 52.385575706026145 24.686375570808465 87.16402077874751 H 0.0 **** 0.06
21449 H 53.94722707203965 23.887837173398985 86.85723776456065 H 0.0 **** 0.06
21450 H 52.459702506045346 23.246623448576457 86.11987839596263 H 0.0 **** 0.06
21451 C 35.34281862339982 75.05061546150762 47.540681352677765 C 0.0 **** -0.24
21452 H 35.525759138864615 75.69666331535001 46.682552947860295 H 0.0 **** 0.06
21453 H 36.158207363997306 74.3326364778211 47.63516371184875 H 0.0 **** 0.06
21454 H 34.40378524367262 74.51622506777915 47.398348428684066 H 0.0 **** 0.06
21455 H 35.283864128355894 75.655441862331 48.4450329481985 H 0.0 **** 0.06
21456 C 14.118662313933186 29.738735376689846 51.07540771905363 C 0.0 **** -0.24
21457 H 15.01736282891784 29.37623669097593 51.57391100617987 H 0.0 **** 0.06
21458 H 14.07994452584839 29.339599270366904 50.06172986830562 H 0.0 **** 0.06
21459 H 14.140031360353703 30.828050720711303 51.03767263748075 H 0.0 **** 0.06
21460 H 13.239897462409175 29.41200274384903 51.62950470937929 H 0.0 **** 0.06
21461 C 120.37448055572631 107.1880139623064 41.26334985182163 C 0.0 **** -0.24
21462 H 119.54270062205288 107.04011387661288 41.95181782846768 H 0.0 **** 0.06
21463 H 120.34908264212314 108.20702359104743 40.876585297213296 H 0.0 **** 0.06
21464 H 120.29151811662871 106.48318452280566 40.435668633413286 H 0.0 **** 0.06
21465 H 121.3146208421006 107.0217338587598 41.78932764819248 H 0.0 **** 0.06
21466 C 8.715731484768373 74.92688312108524 90.91264651319221 C 0.0 **** -0.24
21467 H 8.591601950550267 75.61812094722396 90.07946732651969 H 0.0 **** 0.06
21468 H 8.961887979137131 75.48728598582537 91.81535807240118 H 0.0 **** 0.06
21469 H 9.522599784851192 74.22852013642569 90.68677431332375 H 0.0 **** 0.06
21470 H 7.7897851308604515 74.37414234949097 91.06885923334518 H 0.0 **** 0.06
21471 C 54.454800135890025 89.84779146926942 87.38755509736677 C 0.0 **** -0.24
21472 H 54.85559746660937 90.28959128246885 86.47553159603541 H 0.0 **** 0.06
21473 H 53.814842799606765 90.57243321073105 87.89135410904998 H 0.0 **** 0.06
21474 H 55.27628368609652 89.5673957926978 88.04720238062487 H 0.0 **** 0.06
21475 H 53.871750338947294 88.96108237421305 87.13595131535862 H 0.0 **** 0.06
21476 C 71.6305536785838 72.73870241769055 38.306904110002904 C 0.0 **** -0.24
21477 H 72.05309432500383 71.88752464603448 38.84063837197763 H 0.0 **** 0.06
21478 H 72.28980745024995 73.01444815695345 37.48394590280964 H 0.0 **** 0.06
21479 H 71.5304400257906 73.58229795370983 38.99095190177442 H 0.0 **** 0.06
21480 H 70.64917899163515 72.47122542747985 37.91418627748675 H 0.0 **** 0.06
21481 C 74.36214466598086 38.60965804579922 101.92043088896783 C 0.0 **** -0.24
21482 H 74.94576568222031 39.00153461018158 102.75400139510558 H 0.0 **** 0.06
21483 H 74.16663207667956 37.54978055440063 102.08096112720379 H 0.0 **** 0.06
21484 H 74.91965661110801 38.74136858673512 100.99336821218607 H 0.0 **** 0.06
21485 H 73.4162009734075 39.14822496235155 101.8555638654452 H 0.0 **** 0.06
21486 C 27.665275836364998 78.52112054648649 7.968302005210205 C 0.0 **** -0.24
21487 H 27.153510772028795 78.18245176595693 7.067240703991729 H 0.0 **** 0.06
21488 H 27.008981841620468 78.39432207689535 8.828561117277332 H 0.0 **** 0.06
21489 H 27.92657005759949 79.57525447679893 7.862606221059309 H 0.0 **** 0.06
21490 H 28.572785376962713 77.9353827236053 8.112593624970032 H 0.0 **** 0.06
21491 C 127.78644148703145 22.77275560542722 23.132991944339622 C 0.0 **** -0.24
21492 H 127.1863098840532 23.06342281671749 22.270376075398673 H 0.0 **** 0.06
21493 H 128.37552451443017 21.888992142350105 22.88498210650107 H 0.0 **** 0.06
21494 H 127.13042441664484 22.547479416224633 23.972758942777148 H 0.0 **** 0.06
21495 H 128.45445054593577 23.59105145603388 23.402799834981153 H 0.0 **** 0.06
21496 C 33.89344229551779 81.39937057546987 31.77373770426079 C 0.0 **** -0.24
21497 H 33.58029849304262 80.4514506811575 31.335682542182084 H 0.0 **** 0.06
21498 H 34.97522840647332 81.39357779030323 31.91426468378767 H 0.0 **** 0.06
21499 H 33.4022945409217 81.53401738856734 32.737656585970115 H 0.0 **** 0.06
21500 H 33.61802695602657 82.21578379790647 31.106546368481823 H 0.0 **** 0.06
21501 C 121.20444131277202 57.433439422380516 110.08865621344651 C 0.0 **** -0.24
21502 H 121.81894533562156 57.02808143827782 110.89126014343611 H 0.0 **** 0.06
21503 H 121.71723149434459 57.30232612912158 109.1359862902747 H 0.0 **** 0.06
21504 H 121.0314408215717 58.49584715323766 110.26405628743848 H 0.0 **** 0.06
21505 H 120.24938554105469 56.90953206460024 110.06277229886737 H 0.0 **** 0.06
21506 C 125.18406806474205 80.69762425144502 92.27989576370437 C 0.0 **** -0.24
21507 H 125.28106900466732 81.7471359828454 92.0003113112518 H 0.0 **** 0.06
21508 H 125.56983788382894 80.55314894042834 93.28852004457718 H 0.0 **** 0.06
21509 H 125.75160966513678 80.08268462876471 91.58112592602953 H 0.0 **** 0.06
21510 H 124.13287013799302 80.40886438024359 92.24709024509373 H 0.0 **** 0.06
21511 C 21.42816519577311 128.5496938887441 86.38875306886504 C 0.0 **** -0.24
21512 H 21.427704211765274 129.6208598444957 86.58703487492456 H 0.0 **** 0.06
21513 H 21.553220009782677 128.3790177076103 85.31882667739202 H 0.0 **** 0.06
21514 H 20.482501908165652 128.11933539539328 86.71703486243628 H 0.0 **** 0.06
21515 H 22.249432312278984 128.080206661274 86.92998363055735 H 0.0 **** 0.06
21516 C 37.616817334368925 101.05454615360694 109.20746635183532 C 0.0 **** -0.24
21517 H 37.56391461820107 102.09460258475491 109.53123704497052 H 0.0 **** 0.06
21518 H 36.71072451800754 100.80007241444753 108.65641329848397 H 0.0 **** 0.06
21519 H 37.70681734355682 100.40680219937497 110.07916768028986 H 0.0 **** 0.06
21520 H 38.48555730673801 100.9191324158852 108.56281413645969 H 0.0 **** 0.06
21521 C 66.45295425579107 30.61713133520766 69.11230563771304 C 0.0 **** -0.24
21522 H 66.98431798664532 31.20195019733444 69.8637109892031 H 0.0 **** 0.06
21523 H 65.6136382494708 30.102347761060003 69.58038469951188 H 0.0 **** 0.06
21524 H 67.13191654474224 29.88418435059714 68.67650247243088 H 0.0 **** 0.06
21525 H 66.08302475165411 31.28019590802859 68.33057616022674 H 0.0 **** 0.06
21526 C 39.45314356657582 87.89149679582769 126.30521239426695 C 0.0 **** -0.24
21527 H 38.980063756514966 88.76369099663316 125.85442949935664 H 0.0 **** 0.06
21528 H 40.01945590092345 88.19965658360192 127.18451234087556 H 0.0 **** 0.06
21529 H 40.12629788523071 87.43016737242732 125.58297014428034 H 0.0 **** 0.06
21530 H 38.686786665022055 87.17346243665025 126.59880102192623 H 0.0 **** 0.06
21531 C 104.00041174971162 96.8203339737833 57.12004071703973 C 0.0 **** -0.24
21532 H 104.23099190057656 97.82417506337401 57.47707761119406 H 0.0 **** 0.06
21533 H 104.2430533803435 96.09399127005537 57.89602255517474 H 0.0 **** 0.06
21534 H 104.58946685010591 96.61009611022695 56.226939581126516 H 0.0 **** 0.06
21535 H 102.94007390155554 96.75638907820928 56.87862388129571 H 0.0 **** 0.06
21536 C 69.8646886095099 125.13313283222061 122.00526931137665 C 0.0 **** -0.24
21537 H 70.90859544320398 125.06269669215584 121.69951328566685 H 0.0 **** 0.06
21538 H 69.76435526171034 124.78827571517303 123.03463527396116 H 0.0 **** 0.06
21539 H 69.25213261977459 124.51301977603981 121.35162769270494 H 0.0 **** 0.06
21540 H 69.53572093798394 126.17048434066169 121.93517899972676 H 0.0 **** 0.06
21541 C 118.14705458127563 23.945322304054173 32.605925634572 C 0.0 **** -0.24
21542 H 118.85884492799875 24.284234295798058 33.358481691984224 H 0.0 **** 0.06
21543 H 118.36691399208107 24.430011272316108 31.65360739525528 H 0.0 **** 0.06
21544 H 117.13534962380706 24.203541442603296 32.91999006678421 H 0.0 **** 0.06
21545 H 118.22723080638232 22.86440067764147 32.49120129817365 H 0.0 **** 0.06
21546 C 15.206261692266015 60.48176138233134 38.58802707032311 C 0.0 **** -0.24
21547 H 15.551912961583191 61.47690628708165 38.307272165294364 H 0.0 **** 0.06
21548 H 15.91116567854166 59.73510065413694 38.2198536061004 H 0.0 **** 0.06
21549 H 14.224499563874016 60.30172586829593 38.14994167750183 H 0.0 **** 0.06
21550 H 15.138402340503653 60.413833676633715 39.674115208650676 H 0.0 **** 0.06
21551 C 119.77954527632266 109.24834555697858 2.834826927826356 C 0.0 **** -0.24
21552 H 119.96762471236161 108.19345134560328 2.634328016428384 H 0.0 **** 0.06
21553 H 119.24945899859648 109.68937986731075 1.9900655401506526 H 0.0 **** 0.06
21554 H 120.72809943321835 109.76545395468942 2.9785884334335435 H 0.0 **** 0.06
21555 H 119.17238022607336 109.34506368797663 3.735053950242218 H 0.0 **** 0.06
21556 C 12.685133281512208 7.087296760511357 40.60791754461613 C 0.0 **** -0.24
21557 H 12.008014017602562 6.245581945057818 40.4591418818748 H 0.0 **** 0.06
21558 H 13.7164762917443 6.7328411230100755 40.57757969973487 H 0.0 **** 0.06
21559 H 12.486840992424803 7.546099923515907 41.57579936186451 H 0.0 **** 0.06
21560 H 12.529487486232497 7.821982971484793 39.81749673014653 H 0.0 **** 0.06
21561 C 90.51953121327702 76.34133843479535 81.39971400149268 C 0.0 **** -0.24
21562 H 89.5499569215608 76.79259107713591 81.18722574923483 H 0.0 **** 0.06
21563 H 91.19377321061276 76.51802227654159 80.56197120537408 H 0.0 **** 0.06
21564 H 90.39526650036353 75.26860596218438 81.54649197234393 H 0.0 **** 0.06
21565 H 90.93620303497238 76.78674831751732 82.30290837712506 H 0.0 **** 0.06
21566 C 62.16501580017906 28.725499712763458 105.38750254991132 C 0.0 **** -0.24
21567 H 61.462553157548044 29.384828699592966 105.89669696841833 H 0.0 **** 0.06
21568 H 61.63229291151494 27.858397199849684 104.9970322859452 H 0.0 **** 0.06
21569 H 62.9290608053157 28.396201066405503 106.09139890394746 H 0.0 **** 0.06
21570 H 62.637503439425984 29.263002330876738 104.5648927534574 H 0.0 **** 0.06
21571 C 95.35516499480646 81.89688266397539 53.655980447604065 C 0.0 **** -0.24
21572 H 96.08178718494482 82.6073289770558 54.04985693166134 H 0.0 **** 0.06
21573 H 94.75532255533109 81.49855393771182 54.474558952200084 H 0.0 **** 0.06
21574 H 95.87912258265035 81.07975674510922 53.158912830826694 H 0.0 **** 0.06
21575 H 94.70514650675057 82.39957382991341 52.94025494714697 H 0.0 **** 0.06
21576 C 45.36945146388621 82.47250254946964 116.34954268318997 C 0.0 **** -0.24
21577 H 45.88338823523213 81.51337340145051 116.41795158443375 H 0.0 **** 0.06
21578 H 45.35546894439756 82.94679122695379 117.33048415414045 H 0.0 **** 0.06
21579 H 44.34683049197662 82.31125731719018 116.00842423857543 H 0.0 **** 0.06
21580 H 45.8918682672836 83.11487584244635 115.64091535941743 H 0.0 **** 0.06
21581 C 13.32800804720981 66.1499063137476 57.80796387721486 C 0.0 **** -0.24
21582 H 12.84250230967972 65.53665408234693 58.56686000160707 H 0.0 **** 0.06
21583 H 13.962784941830659 66.89263700436564 58.2935810250535 H 0.0 **** 0.06
21584 H 12.569688724827255 66.6548470875544 57.20954672281272 H 0.0 **** 0.06
21585 H 13.937267356611933 65.51621244453173 57.163719647424244 H 0.0 **** 0.06
21586 C 8.323110303350308 34.51083159866795 64.47595799240915 C 0.0 **** -0.24
21587 H 8.835825526375778 35.43926850346327 64.22530592092457 H 0.0 **** 0.06
21588 H 7.9709698489957574 34.55829403880438 65.50710927452891 H 0.0 **** 0.06
21589 H 9.013258766548255 33.67426176656113 64.36594666107936 H 0.0 **** 0.06
21590 H 7.4742938904922696 34.3727255491915 63.80640151762944 H 0.0 **** 0.06
21591 C 104.15676305144673 41.17364756272059 106.84412546006408 C 0.0 **** -0.24
21592 H 103.2197789375367 41.731154240058885 106.8422330421437 H 0.0 **** 0.06
21593 H 104.7472490037271 41.459293153656034 107.71523536241355 H 0.0 **** 0.06
21594 H 104.71534096097979 41.40104199340331 105.9359635899128 H 0.0 **** 0.06
21595 H 103.94392596223634 40.10526742188131 106.88221381087746 H 0.0 **** 0.06
21596 C 126.36023570051404 108.75649513007079 32.38128352858457 C 0.0 **** -0.24
21597 H 127.01371626693154 108.76612719216823 31.509192467807672 H 0.0 **** 0.06
21598 H 125.43307781252432 109.28071358022177 32.14683991281996 H 0.0 **** 0.06
21599 H 126.85794218540426 109.25405982273752 33.21354436035344 H 0.0 **** 0.06
21600 H 126.136408830036 107.72553855093585 32.65642270332334 H 0.0 **** 0.06
21601 C 56.669485869207506 101.49385927447264 130.33857856793884 C 0.0 **** -0.24
21602 H 56.32004969053824 100.50310653249869 130.6294940945153 H 0.0 **** 0.06
21603 H 57.70013348597692 101.42741638860144 129.99050488903924 H 0.0 **** 0.06
21604 H 56.617189466782676 102.16356106527417 131.1964375391393 H 0.0 **** 0.06
21605 H 56.03929673729776 101.8799797399684 129.53717721128652 H 0.0 **** 0.06
21606 C 128.96047378025244 92.71139553901662 14.686066733575302 C 0.0 **** -0.24
21607 H 129.53655412861698 91.78988596335694 14.77682503916661 H 0.0 **** 0.06
21608 H 129.2832382216575 93.25569936402212 13.799467702713727 H 0.0 **** 0.06
21609 H 129.1227589539067 93.32765336847083 15.570923973207243 H 0.0 **** 0.06
21610 H 127.90157185487087 92.47045583874777 14.599961178300703 H 0.0 **** 0.06
21611 C 100.39743232555833 20.49774074269243 79.20794609161945 C 0.0 **** -0.24
21612 H 100.71171206124953 19.676045273101693 78.56353059248451 H 0.0 **** 0.06
21613 H 99.31788636233297 20.62682152697448 79.13182696548839 H 0.0 **** 0.06
21614 H 100.89648788530221 21.41492106991683 78.89503033566052 H 0.0 **** 0.06
21615 H 100.66549310156469 20.27259057968223 80.24028484591739 H 0.0 **** 0.06
21616 C 27.803419632956988 38.442631013283375 87.65119657543455 C 0.0 **** -0.24
21617 H 27.83312347074684 37.92678263888345 88.61023334725589 H 0.0 **** 0.06
21618 H 28.792284899531126 38.41398734487595 87.191837692815 H 0.0 **** 0.06
21619 H 27.504718897577973 39.48039422751475 87.8066024179812 H 0.0 **** 0.06
21620 H 27.08352216106841 37.95159092287503 86.99596549963906 H 0.0 **** 0.06
21621 C 52.295373312701884 87.7715559793893 40.003960300574 C 0.0 **** -0.24
21622 H 53.04986444556414 88.48507060508574 40.33210106824634 H 0.0 **** 0.06
21623 H 51.60678679537972 87.56751118334938 40.8241638255312 H 0.0 **** 0.06
21624 H 52.780696026568066 86.8443336178463 39.69796018489242 H 0.0 **** 0.06
21625 H 51.744164541197335 88.18794527878592 39.16124013867748 H 0.0 **** 0.06
21626 C 69.7424540423794 68.72587197687855 32.85496724301157 C 0.0 **** -0.24
21627 H 70.77155979315626 68.37696814553549 32.7715890695373 H 0.0 **** 0.06
21628 H 69.08122719433317 67.87390222899307 33.01170284157127 H 0.0 **** 0.06
21629 H 69.45970732221667 69.24186927645569 31.936925523424513 H 0.0 **** 0.06
21630 H 69.65892652004031 69.41218070854666 33.69712690640916 H 0.0 **** 0.06
21631 C 87.21210806285893 101.08625712779387 90.36993628665346 C 0.0 **** -0.24
21632 H 86.21947104985082 101.0088390203702 89.92625997389393 H 0.0 **** 0.06
21633 H 87.48340578993424 102.1377664241061 90.4704016213663 H 0.0 **** 0.06
21634 H 87.93580629056413 100.58307690581859 89.7294146566943 H 0.0 **** 0.06
21635 H 87.20782448533527 100.61661185746695 91.35283575297234 H 0.0 **** 0.06
21636 C 118.11816942801835 84.58113790589925 84.61526732830632 C 0.0 **** -0.24
21637 H 117.45424143536928 83.80190294949074 84.98952388660307 H 0.0 **** 0.06
21638 H 118.26329831790531 84.4503222850694 83.54271132816513 H 0.0 **** 0.06
21639 H 119.08091455114646 84.51176423096672 85.1233437866882 H 0.0 **** 0.06
21640 H 117.67594650700909 85.55810690623935 84.80649192374223 H 0.0 **** 0.06
21641 C 58.19535251082064 107.85054937435856 109.22152528717376 C 0.0 **** -0.24
21642 H 58.23464870142905 108.85311425217165 108.79485799327065 H 0.0 **** 0.06
21643 H 59.180238279860674 107.58062114434534 109.60394691112363 H 0.0 **** 0.06
21644 H 57.896790271005756 107.13941974334332 108.45084328707735 H 0.0 **** 0.06
21645 H 57.47116842373393 107.83003109991067 110.03547235995443 H 0.0 **** 0.06
21646 C 2.9819322368979044 103.09429776181565 78.05220049333137 C 0.0 **** -0.24
21647 H 3.124111572669463 104.17493786000654 78.06242225015372 H 0.0 **** 0.06
21648 H 2.7039885249917575 102.75434762118977 79.04923188538524 H 0.0 **** 0.06
21649 H 3.9106186499117825 102.60952428079253 77.7484904710969 H 0.0 **** 0.06
21650 H 2.191023175375534 102.83905082895438 77.34653601216638 H 0.0 **** 0.06
21651 C 33.09268101572624 28.448596157331167 88.53052160992686 C 0.0 **** -0.24
21652 H 33.89062798358623 28.08391544977883 89.17786164768708 H 0.0 **** 0.06
21653 H 33.21753237051398 28.033063869767318 87.53083290810315 H 0.0 **** 0.06
21654 H 33.13643429509567 29.536700968639934 88.47930576693588 H 0.0 **** 0.06
21655 H 32.12819155995311 28.14283643363649 88.93453582576774 H 0.0 **** 0.06
21656 C 104.4264060564916 23.64672891559883 37.960683859797996 C 0.0 **** -0.24
21657 H 104.70265176389563 22.719067027963035 37.45921879216564 H 0.0 **** 0.06
21658 H 104.89253388617004 23.679765152001252 38.94595589354401 H 0.0 **** 0.06
21659 H 103.34264691768351 23.692459691917634 38.06850919603329 H 0.0 **** 0.06
21660 H 104.76826284487827 24.495693731500083 37.367719940654695 H 0.0 **** 0.06
21661 C 39.765810170855985 6.528854616431836 56.86729588324445 C 0.0 **** -0.24
21662 H 40.822320353128106 6.6579882586033605 56.632074257206895 H 0.0 **** 0.06
21663 H 39.193838957472195 7.346696190649425 56.42737698063675 H 0.0 **** 0.06
21664 H 39.63196240315739 6.532114723946567 57.94937150731704 H 0.0 **** 0.06
21665 H 39.4161664116659 5.5808146291938066 56.46065009366946 H 0.0 **** 0.06
21666 C 24.81584638108967 129.67125821374856 40.8574366278978 C 0.0 **** -0.24
21667 H 24.38307581553849 129.33325217728378 41.79812676463002 H 0.0 **** 0.06
21668 H 24.094768370256467 129.52433919917033 40.05237770946014 H 0.0 **** 0.06
21669 H 25.71897621393213 129.0991153962909 40.64617483708542 H 0.0 **** 0.06
21670 H 25.06523103711301 130.72951893657608 40.931726458534115 H 0.0 **** 0.06
21671 C 120.50725935884469 100.18219682899499 26.320777956632867 C 0.0 **** -0.24
21672 H 121.39295535923759 99.61032112582492 26.595241384869865 H 0.0 **** 0.06
21673 H 120.75023456179406 100.8547066199313 25.49765819478739 H 0.0 **** 0.06
21674 H 120.16967217665695 100.76342146076809 27.178249957549212 H 0.0 **** 0.06
21675 H 119.71604606513887 99.49923068121078 26.011092230023536 H 0.0 **** 0.06
21676 C 87.42387036414001 111.24832855643746 19.84897538817131 C 0.0 **** -0.24
21677 H 88.3290120992742 111.42901188732648 20.429706395606956 H 0.0 **** 0.06
21678 H 86.59850319269617 111.81680949983709 20.27658487278535 H 0.0 **** 0.06
21679 H 87.1842288919647 110.18531342396716 19.87270841260738 H 0.0 **** 0.06
21680 H 87.58543542507746 111.56079728084151 18.817356034889144 H 0.0 **** 0.06
21681 C 47.960660833045125 55.16118663501524 80.61368344005827 C 0.0 **** -0.24
21682 H 48.61159454456015 54.548923585558924 79.99026008250853 H 0.0 **** 0.06
21683 H 48.12839835397148 54.91720515143484 81.66304737595354 H 0.0 **** 0.06
21684 H 46.92032745269137 54.96493591709387 80.35569207980514 H 0.0 **** 0.06
21685 H 48.18326986697684 56.215660898117875 80.44616688528095 H 0.0 **** 0.06
21686 C 105.78146733002811 107.96112571545609 115.00046602989227 C 0.0 **** -0.24
21687 H 106.72769633867631 107.42155627058017 115.04864264591669 H 0.0 **** 0.06
21688 H 105.82728124004399 108.70318961021079 114.20322093227935 H 0.0 **** 0.06
21689 H 105.60093248696825 108.46123772168943 115.9522426046326 H 0.0 **** 0.06
21690 H 104.97334905026955 107.25922659912447 114.79917558897188 H 0.0 **** 0.06
21691 C 36.71884822503387 52.16972141608014 98.81988900534098 C 0.0 **** -0.24
21692 H 37.58843548161789 51.515014507346876 98.8787986580403 H 0.0 **** 0.06
21693 H 36.48687115362051 52.371849618958734 97.77438803576071 H 0.0 **** 0.06
21694 H 36.93369549619908 53.106750866498004 99.33303118347536 H 0.0 **** 0.06
21695 H 35.86660320361062 51.68270163166753 99.29487287833196 H 0.0 **** 0.06
21696 C 110.12132837701671 108.98692121150751 109.642457375395 C 0.0 **** -0.24
21697 H 109.99945131806835 110.046088296569 109.41873553499505 H 0.0 **** 0.06
21698 H 109.97102568377274 108.40399446589143 108.7336939368148 H 0.0 **** 0.06
21699 H 109.38897018594105 108.68751002641162 110.39260464507407 H 0.0 **** 0.06
21700 H 111.1267360698205 108.81048841705353 110.0250894774149 H 0.0 **** 0.06
21701 C 101.4592097958044 112.40278617374057 109.43551320540712 C 0.0 **** -0.24
21702 H 101.50778307683633 111.43332878079079 108.94094228347473 H 0.0 **** 0.06
21703 H 101.81112676768058 113.17636652617607 108.75271867260079 H 0.0 **** 0.06
21704 H 102.08853973968205 112.38971686345545 110.3245989189789 H 0.0 **** 0.06
21705 H 100.42858116613074 112.6126789178587 109.72258839528871 H 0.0 **** 0.06
21706 C 73.80594346969896 100.34596397383743 90.85838690414067 C 0.0 **** -0.24
21707 H 73.50961203235838 100.9093934474891 91.74346905113957 H 0.0 **** 0.06
21708 H 73.5157268472461 100.89702419253567 89.96296828437019 H 0.0 **** 0.06
21709 H 73.31179919151364 99.37403056179127 90.86322288608626 H 0.0 **** 0.06
21710 H 74.88670889355505 100.20432550285145 90.86349708680562 H 0.0 **** 0.06
21711 C 30.798540817489595 85.5200206877645 59.73723043807317 C 0.0 **** -0.24
21712 H 30.904056996168897 84.48258644888048 60.053681025779 H 0.0 **** 0.06
21713 H 31.1402930713124 85.62209283163448 58.7067396805776 H 0.0 **** 0.06
21714 H 31.398647518962328 86.15911835200271 60.38429113461581 H 0.0 **** 0.06
21715 H 29.75183752999478 85.81554625882697 59.804262490597196 H 0.0 **** 0.06
21716 C 105.87592711716768 52.30878023150697 8.560757730672897 C 0.0 **** -0.24
21717 H 106.05574925845777 51.254823582405265 8.345381478935785 H 0.0 **** 0.06
21718 H 104.87200804609786 52.42919611820541 8.969916716410914 H 0.0 **** 0.06
21719 H 105.96670235559563 52.88709185761496 7.6410561415299085 H 0.0 **** 0.06
21720 H 106.60953116540072 52.66106581598768 9.286170343927314 H 0.0 **** 0.06
21721 C 6.095364316704007 91.43128509662563 70.90847056509773 C 0.0 **** -0.24
21722 H 5.3656682539347 92.15808282704754 70.54997475385943 H 0.0 **** 0.06
21723 H 6.348223937398814 91.651627939312 71.94592251691199 H 0.0 **** 0.06
21724 H 6.9942951981817885 91.48675532987426 70.29463199938874 H 0.0 **** 0.06
21725 H 5.671620058308264 90.42859698412201 70.84184554179166 H 0.0 **** 0.06
21726 C 129.2880945673473 3.475659149562773 119.14637876936037 C 0.0 **** -0.24
21727 H 129.96842362288135 3.5095041073345783 119.99763630638016 H 0.0 **** 0.06
21728 H 128.53035627735878 2.710511717236386 119.31720792200305 H 0.0 **** 0.06
21729 H 129.84901522219113 3.236910705169521 118.24334853031246 H 0.0 **** 0.06
21730 H 128.806159882832 4.445978321781695 119.0291776569525 H 0.0 **** 0.06
21731 C 50.779540672328864 105.37549806848949 96.19995561471515 C 0.0 **** -0.24
21732 H 50.30025138522899 105.79027335299867 95.31368158037648 H 0.0 **** 0.06
21733 H 50.02518738717504 105.17137718795715 96.95929559963895 H 0.0 **** 0.06
21734 H 51.503947486644876 106.09153313290983 96.58943486065559 H 0.0 **** 0.06
21735 H 51.29078968103252 104.44942560701116 95.93665782031533 H 0.0 **** 0.06
21736 C 1.97258747814789 18.270705775606494 63.918122786328865 C 0.0 **** -0.24
21737 H 2.1962809068409435 17.371253668575257 63.34403511336143 H 0.0 **** 0.06
21738 H 2.904290679479182 18.754077897349525 64.21348875289618 H 0.0 **** 0.06
21739 H 1.4045451820107289 18.00053733228996 64.80819998544393 H 0.0 **** 0.06
21740 H 1.3855876291931821 18.954932535729988 63.30587989475708 H 0.0 **** 0.06
21741 C 129.52569170853693 76.12879181364539 54.52757165706821 C 0.0 **** -0.24
21742 H 130.17691702253327 75.71770129342029 55.29805369293378 H 0.0 **** 0.06
21743 H 129.55541873955943 75.48660421046294 53.64709515007097 H 0.0 **** 0.06
21744 H 129.86605640159974 77.12892267070843 54.25976277193766 H 0.0 **** 0.06
21745 H 128.50386306139126 76.18123093215246 54.9048883525094 H 0.0 **** 0.06
21746 C 42.05334561613964 113.39315628346844 122.49166671366831 C 0.0 **** -0.24
21747 H 42.375649693599854 114.30754501039758 121.99376933930878 H 0.0 **** 0.06
21748 H 42.90866298860712 112.92281491686782 122.97776209054388 H 0.0 **** 0.06
21749 H 41.63020841082897 112.70776782242228 121.75730234083088 H 0.0 **** 0.06
21750 H 41.29814638148366 113.6347064332403 123.23994148800264 H 0.0 **** 0.06
21751 C 19.685773023774573 77.65227500075207 30.810411587009412 C 0.0 **** -0.24
21752 H 20.432249044230787 78.15439444285303 30.194365217832797 H 0.0 **** 0.06
21753 H 18.693149045965242 78.02094287333581 30.552237042979755 H 0.0 **** 0.06
21754 H 19.888114532274358 77.85664751406331 31.86178462214002 H 0.0 **** 0.06
21755 H 19.732746449358785 76.57796855838586 30.633752016394965 H 0.0 **** 0.06
21756 C 0.9977679887233535 35.112581061497465 54.12660890014121 C 0.0 **** -0.24
21757 H 0.15590975835999643 35.08261708161679 53.43318948804898 H 0.0 **** 0.06
21758 H 1.528497521642123 36.05784345666831 54.01173221415411 H 0.0 **** 0.06
21759 H 1.6748425691581588 34.28669950043908 53.91016701971776 H 0.0 **** 0.06
21760 H 0.6296182494187406 35.0240052252826 55.14844231510904 H 0.0 **** 0.06
21761 C 110.65015943588861 114.94607309707207 27.84818868694873 C 0.0 **** -0.24
21762 H 109.72881646418932 115.25319649873059 28.342430307066707 H 0.0 **** 0.06
21763 H 111.49507747584903 115.46415902521913 28.301296752100143 H 0.0 **** 0.06
21764 H 110.59461914296361 115.19745135583015 26.789000450844384 H 0.0 **** 0.06
21765 H 110.78047809815286 113.86997250148094 27.95979955827849 H 0.0 **** 0.06
21766 C 71.0084855318791 101.97792577387936 116.70653667469134 C 0.0 **** -0.24
21767 H 71.4942309319847 101.05387292396242 117.01990738498006 H 0.0 **** 0.06
21768 H 69.98142984050773 101.99019544084148 117.07153330224091 H 0.0 **** 0.06
21769 H 71.00797601621849 102.03512875583363 115.61754214336045 H 0.0 **** 0.06
21770 H 71.54993898428205 102.82976150815782 117.11600879661924 H 0.0 **** 0.06
21771 C 129.79899109904196 38.79414092888564 42.81227238798772 C 0.0 **** -0.24
21772 H 128.91902447380687 39.218462513964624 43.29528209533889 H 0.0 **** 0.06
21773 H 129.6129453041993 38.69264361172722 41.74329030185865 H 0.0 **** 0.06
21774 H 130.00937737108526 37.81350110123623 43.24011776083361 H 0.0 **** 0.06
21775 H 130.65389455201054 39.45131498189269 42.971836873942166 H 0.0 **** 0.06
21776 C 2.0590897228831118 10.437179879658657 109.46361315729084 C 0.0 **** -0.24
21777 H 1.2285133761847433 10.979363026043856 109.01148723977975 H 0.0 **** 0.06
21778 H 2.5936657014374624 9.883447172488161 108.69117213352996 H 0.0 **** 0.06
21779 H 1.675336978062699 9.743342638224448 110.21117529558441 H 0.0 **** 0.06
21780 H 2.737896703679205 11.145374243328959 109.93856292743243 H 0.0 **** 0.06
21781 C 52.89548989796975 5.158741805949639 21.73782225667898 C 0.0 **** -0.24
21782 H 51.882418318018864 5.464512104264664 21.473451196089968 H 0.0 **** 0.06
21783 H 52.97713653296964 5.071775674691523 22.82129407947056 H 0.0 **** 0.06
21784 H 53.60442366443718 5.904551630914835 21.378387861604807 H 0.0 **** 0.06
21785 H 53.115773578710645 4.196454530206715 21.277310927709294 H 0.0 **** 0.06
21786 C 49.30061937710451 19.46456698058455 123.26925867445692 C 0.0 **** -0.24
21787 H 49.42525667154638 19.47956387684397 124.35188561524933 H 0.0 **** 0.06
21788 H 49.88051104259614 20.27510789631407 122.82592511538991 H 0.0 **** 0.06
21789 H 48.24711190481827 19.594907215203875 123.02388377503189 H 0.0 **** 0.06
21790 H 49.65101688111088 18.509986735434467 122.87685759446254 H 0.0 **** 0.06
21791 C 8.420255356887687 87.2792032943195 58.9911223593098 C 0.0 **** -0.24
21792 H 8.563681703807646 86.63005438602347 58.12782924611477 H 0.0 **** 0.06
21793 H 8.991714544153012 88.19742746771735 58.8525392459382 H 0.0 **** 0.06
21794 H 8.765183449745024 86.76827020386641 59.890780366989475 H 0.0 **** 0.06
21795 H 7.362783805342865 87.5204484456207 59.09371427401737 H 0.0 **** 0.06
21796 C 103.55926387217349 69.05076993077745 72.29236660099475 C 0.0 **** -0.24
21797 H 103.75390966558129 67.98411065812536 72.1776908850781 H 0.0 **** 0.06
21798 H 102.67977200436272 69.32414147906212 71.71049509583304 H 0.0 **** 0.06
21799 H 104.42133544110172 69.6162317941309 71.93780632380266 H 0.0 **** 0.06
21800 H 103.38508791092747 69.27664633913241 73.3444231853509 H 0.0 **** 0.06
21801 C 99.12989068273443 59.79049450466303 14.88431969349216 C 0.0 **** -0.24
21802 H 99.11594175269929 60.81267900353363 14.505842800739572 H 0.0 **** 0.06
21803 H 100.01794307748288 59.27797560259279 14.51348303174558 H 0.0 **** 0.06
21804 H 98.23830073602923 59.264493725660145 14.544428588916048 H 0.0 **** 0.06
21805 H 99.14824195381787 59.80786785322928 15.97394203944367 H 0.0 **** 0.06
21806 C 99.51344226684814 27.156309093603305 39.83446571434223 C 0.0 **** -0.24
21807 H 100.26544517964177 26.54776817301606 39.33303377490648 H 0.0 **** 0.06
21808 H 99.92346816346064 28.145012338037766 40.03858598391514 H 0.0 **** 0.06
21809 H 99.22798965924872 26.68076483172736 40.773083827819676 H 0.0 **** 0.06
21810 H 98.63663118266413 27.25135438623621 39.19407116770401 H 0.0 **** 0.06
21811 C 56.09708552382057 11.566669930306148 120.95148290800867 C 0.0 **** -0.24
21812 H 55.441915960388556 12.4151590803569 121.15369958701666 H 0.0 **** 0.06
21813 H 55.507537356646324 10.737405621199201 120.55949033314936 H 0.0 **** 0.06
21814 H 56.58797956302902 11.260089056711408 121.87501345286236 H 0.0 **** 0.06
21815 H 56.84977930895836 11.856955350740762 120.21810582826811 H 0.0 **** 0.06
21816 C 121.12211782972719 102.92409197152405 11.24215534889094 C 0.0 **** -0.24
21817 H 120.14968660445729 102.6137989078571 11.625570582904686 H 0.0 **** 0.06
21818 H 121.422959152994 103.85368607893453 11.72476775371343 H 0.0 **** 0.06
21819 H 121.05543967802284 103.0772555130381 10.16493557801958 H 0.0 **** 0.06
21820 H 121.85904431869604 102.1492035416936 11.45449886491156 H 0.0 **** 0.06
21821 C 40.016680227496195 102.26751963817304 62.49183342101824 C 0.0 **** -0.24
21822 H 40.98130984847165 102.73714461957574 62.681215243973014 H 0.0 **** 0.06
21823 H 39.95759847727689 101.32617254715518 63.03948892564179 H 0.0 **** 0.06
21824 H 39.90885794070414 102.07404344221362 61.42475434048009 H 0.0 **** 0.06
21825 H 39.218013985906055 102.93153789124756 62.8235253009656 H 0.0 **** 0.06
21826 C 100.45754954785036 57.91936228386237 21.98586091301371 C 0.0 **** -0.24
21827 H 101.12524425038873 58.469574947427816 22.64943104642407 H 0.0 **** 0.06
21828 H 101.04714447969741 57.34275196218118 21.27325456156592 H 0.0 **** 0.06
21829 H 99.8212062126629 58.62207423289982 21.44847230716232 H 0.0 **** 0.06
21830 H 99.83636023738364 57.24370854839674 22.57463199940031 H 0.0 **** 0.06
21831 C 80.53510859078321 29.450870386073575 110.27019237323691 C 0.0 **** -0.24
21832 H 81.02699135445607 28.490938729234045 110.4254824204348 H 0.0 **** 0.06
21833 H 81.2117718468345 30.256924362718436 110.55625419947171 H 0.0 **** 0.06
21834 H 79.63247985149718 29.500401941289624 110.87957606042367 H 0.0 **** 0.06
21835 H 80.26921927277414 29.556547712607482 109.21766031595241 H 0.0 **** 0.06
21836 C 125.98686137197845 99.6438856281856 62.654407257121605 C 0.0 **** -0.24
21837 H 124.9871368296798 99.24764218001391 62.83707234766196 H 0.0 **** 0.06
21838 H 126.04304958443137 100.66952143235311 63.01851648107494 H 0.0 **** 0.06
21839 H 126.19425136936411 99.62481810835185 61.58519577029618 H 0.0 **** 0.06
21840 H 126.7202941178471 99.03071912628776 63.178445176387044 H 0.0 **** 0.06
21841 C 76.23824497929908 48.28514275504751 61.37596795812293 C 0.0 **** -0.24
21842 H 76.24670309275797 47.47247085285103 62.10272606224697 H 0.0 **** 0.06
21843 H 76.72413330157391 47.95517649757049 60.456675628898736 H 0.0 **** 0.06
21844 H 76.77464956192318 49.14164804465973 61.78367404300826 H 0.0 **** 0.06
21845 H 75.20842653290316 48.56883181366523 61.161872454578614 H 0.0 **** 0.06
21846 C 21.293162030696635 20.79267270130125 124.62426008171386 C 0.0 **** -0.24
21847 H 20.67873768557513 20.295679511935617 123.87446818695388 H 0.0 **** 0.06
21848 H 22.34764756127248 20.63805702634911 124.39174163153766 H 0.0 **** 0.06
21849 H 21.07382975281712 20.376653609488258 125.60790888725465 H 0.0 **** 0.06
21850 H 21.073430797913034 21.86020936522111 124.62391983082773 H 0.0 **** 0.06
21851 C 93.49940348508636 48.58661580341034 29.8556141526077 C 0.0 **** -0.24
21852 H 93.1997147246388 49.49878792212641 29.33963339460513 H 0.0 **** 0.06
21853 H 94.18130180848325 48.83622402657508 30.669025442968007 H 0.0 **** 0.06
21854 H 93.99958732155147 47.91994166804968 29.154057223410973 H 0.0 **** 0.06
21855 H 92.61669312226473 48.091570386298656 30.261117484719136 H 0.0 **** 0.06
21856 C 50.75683316950588 128.2848751539198 86.67088117094173 C 0.0 **** -0.24
21857 H 51.07727159505069 128.0413795232524 87.6839836221474 H 0.0 **** 0.06
21858 H 51.10015637969693 127.50877445456726 85.98563636768435 H 0.0 **** 0.06
21859 H 51.1819711898419 129.24457311678003 86.37544758103363 H 0.0 **** 0.06
21860 H 49.66925301888918 128.34432330311665 86.63821979236221 H 0.0 **** 0.06
21861 C 111.05677662834657 57.32750176981409 49.20489107222025 C 0.0 **** -0.24
21862 H 111.33470940975351 58.15064578337693 48.54777944698586 H 0.0 **** 0.06
21863 H 110.0824600354155 56.938934685006686 48.90683348773112 H 0.0 **** 0.06
21864 H 111.00588811956186 57.685919394631114 50.23321381232347 H 0.0 **** 0.06
21865 H 111.80239683465092 56.53592824914834 49.13223900424174 H 0.0 **** 0.06
21866 C 118.10995975380447 90.22226918915577 71.88957755582668 C 0.0 **** -0.24
21867 H 118.80061233900511 89.84579357500326 71.13461754260962 H 0.0 **** 0.06
21868 H 117.37406598070442 90.87176208902783 71.41666769436681 H 0.0 **** 0.06
21869 H 118.66461489239671 90.7870216152254 72.63903659664749 H 0.0 **** 0.06
21870 H 117.60242589892138 89.3851572160995 72.36816961689749 H 0.0 **** 0.06
21871 C 64.75317931769459 83.26499609665089 70.92513487631325 C 0.0 **** -0.24
21872 H 63.69277159111422 83.42853834585225 71.11416606670596 H 0.0 **** 0.06
21873 H 65.07929605828184 82.36266289270961 71.44343130789105 H 0.0 **** 0.06
21874 H 65.32273019019789 84.11947426298471 71.29041193270331 H 0.0 **** 0.06
21875 H 64.9181679506884 83.14885044586347 69.85384480187034 H 0.0 **** 0.06
21876 C 94.17077976827869 19.3926893385551 55.82076701950305 C 0.0 **** -0.24
21877 H 94.87054078524115 19.005815382781577 56.562286804738704 H 0.0 **** 0.06
21878 H 94.64144064530193 19.380287151368435 54.836741562834135 H 0.0 **** 0.06
21879 H 93.89640229054409 20.41578498170105 56.07956196453571 H 0.0 **** 0.06
21880 H 93.2769071003465 18.769362669233374 55.80427549179636 H 0.0 **** 0.06
21881 C 51.13455423454002 28.026077438141556 124.86631696571615 C 0.0 **** -0.24
21882 H 51.309480313668814 28.28937751107449 125.90928407254577 H 0.0 **** 0.06
21883 H 51.971067956158265 28.373176797573564 124.25879876391534 H 0.0 **** 0.06
21884 H 50.21439241650637 28.499572300321233 124.52146132940769 H 0.0 **** 0.06
21885 H 51.04270618850444 26.94431199662165 124.77534515723164 H 0.0 **** 0.06
21886 C 82.39127946108191 75.50395222439903 55.22089375602445 C 0.0 **** -0.24
21887 H 81.31435419877226 75.55409125543366 55.37659037856868 H 0.0 **** 0.06
21888 H 82.59969296854796 74.9715856874783 54.29251765488311 H 0.0 **** 0.06
21889 H 82.85524469523824 74.9764580639953 56.05425000394776 H 0.0 **** 0.06
21890 H 82.79677542222683 76.51398539305293 55.16017717408393 H 0.0 **** 0.06
21891 C 6.5490992542159105 42.934771012758254 16.59560107317497 C 0.0 **** -0.24
21892 H 6.845882494803085 41.91417269911824 16.35816866901895 H 0.0 **** 0.06
21893 H 5.65140240447958 42.917732443596925 17.21427107207939 H 0.0 **** 0.06
21894 H 6.344140998426948 43.47863515095355 15.672989869658714 H 0.0 **** 0.06
21895 H 7.354780319411475 43.43017815878283 17.137515510297384 H 0.0 **** 0.06
21896 C 100.46866367975127 123.09735716734204 59.82198957136245 C 0.0 **** -0.24
21897 H 99.52481602658173 123.56218691944338 60.10821574086873 H 0.0 **** 0.06
21898 H 101.13687830598849 123.07399887840563 60.68287985361911 H 0.0 **** 0.06
21899 H 100.92827764276831 123.67447008852727 59.01982741059601 H 0.0 **** 0.06
21900 H 100.28205887707003 122.08052994244596 59.476867130936 H 0.0 **** 0.06
21901 C 112.65143979156034 74.61604937304458 129.98248765243073 C 0.0 **** -0.24
21902 H 112.74423799681824 74.0098409884746 129.08068034075654 H 0.0 **** 0.06
21903 H 112.81406752726423 73.98850708261978 130.858377671737 H 0.0 **** 0.06
21904 H 111.6527382599894 75.04998018455206 130.02576283834335 H 0.0 **** 0.06
21905 H 113.39380226305508 75.41323782500058 129.9617767080556 H 0.0 **** 0.06
21906 C 44.74968123199008 35.566377548153355 8.618783904280917 C 0.0 **** -0.24
21907 H 45.43059736841781 36.41599855275007 8.567355936502679 H 0.0 **** 0.06
21908 H 44.75450915866091 35.03937365944279 7.6644191479471715 H 0.0 **** 0.06
21909 H 43.74125748236402 35.92133550777555 8.832809352112122 H 0.0 **** 0.06
21910 H 45.071792730870285 34.88999603142287 9.410048495631088 H 0.0 **** 0.06
21911 C 77.63061194293294 60.77935215996335 116.17638122358338 C 0.0 **** -0.24
21912 H 77.88741995926173 60.76392504028135 117.23526746802514 H 0.0 **** 0.06
21913 H 77.33607048024689 59.778202002509175 115.85981334137949 H 0.0 **** 0.06
21914 H 78.49486066558134 61.104863345289104 115.59741396856506 H 0.0 **** 0.06
21915 H 76.80338346117273 61.47050868432041 116.0142480128338 H 0.0 **** 0.06
21916 C 7.907323492226453 58.72050090178311 16.55190519745335 C 0.0 **** -0.24
21917 H 8.083907201471959 59.26482895505603 17.479435582980642 H 0.0 **** 0.06
21918 H 7.8352167534376065 59.42714834488493 15.724747102089765 H 0.0 **** 0.06
21919 H 6.976516265938528 58.159113534751555 16.63295828300275 H 0.0 **** 0.06
21920 H 8.732088611518748 58.03205198901088 16.370982571195754 H 0.0 **** 0.06
21921 C 126.85527420566245 55.63102266950335 109.19486066818061 C 0.0 **** -0.24
21922 H 127.55656074654104 56.40059439330297 108.87262006420083 H 0.0 **** 0.06
21923 H 126.20454454836747 55.3625067298631 108.36254427160696 H 0.0 **** 0.06
21924 H 126.2529419083339 56.01043705642749 110.02004911542771 H 0.0 **** 0.06
21925 H 127.40819671579126 54.75054395265785 109.52293142924478 H 0.0 **** 0.06
21926 C 5.707790479979394 60.20462842476769 87.8583277484374 C 0.0 **** -0.24
21927 H 6.31323984716326 61.01881831764291 87.45871992698966 H 0.0 **** 0.06
21928 H 6.327099551922544 59.31534703034379 87.97625719388256 H 0.0 **** 0.06
21929 H 4.889913700786451 59.99046426188664 87.17066305475922 H 0.0 **** 0.06
21930 H 5.301456021509267 60.4967751439641 88.82708526159885 H 0.0 **** 0.06
21931 C 36.36763140558875 72.59712338458289 115.20517147727276 C 0.0 **** -0.24
21932 H 36.73462137249919 72.04999283845697 116.0743901388829 H 0.0 **** 0.06
21933 H 36.381329202368505 71.94310402793238 114.33286042995616 H 0.0 **** 0.06
21934 H 37.00794476861796 73.46038476541639 115.02294339662143 H 0.0 **** 0.06
21935 H 35.348184990462755 72.93386904783566 115.39162199921407 H 0.0 **** 0.06
21936 C 116.0357276163229 109.1871448282599 63.51668883352498 C 0.0 **** -0.24
21937 H 116.1220806668412 109.02926631557877 64.59170417856949 H 0.0 **** 0.06
21938 H 115.17093744484991 108.64107939318873 63.13827763722044 H 0.0 **** 0.06
21939 H 116.93729355599885 108.82681588697261 63.022556959796674 H 0.0 **** 0.06
21940 H 115.91051818750249 110.25089484198477 63.3148473855628 H 0.0 **** 0.06
21941 C 47.29300656326643 102.74544381223662 118.75538123882714 C 0.0 **** -0.24
21942 H 46.703043741247654 102.11336342659325 119.41949776024788 H 0.0 **** 0.06
21943 H 48.25356004716559 102.26837289367539 118.5578037105355 H 0.0 **** 0.06
21944 H 47.458070119540196 103.71345308689587 119.22857521775887 H 0.0 **** 0.06
21945 H 46.757441520870145 102.88705838447297 117.81652508318888 H 0.0 **** 0.06
21946 C 9.635089047304703 5.3339305982207 35.77567934513263 C 0.0 **** -0.24
21947 H 9.38442472271042 6.28588963225225 35.30906516834473 H 0.0 **** 0.06
21948 H 9.828361362529051 5.488574543993501 36.83779544150971 H 0.0 **** 0.06
21949 H 10.5243367832839 4.919480076362582 35.30128218072167 H 0.0 **** 0.06
21950 H 8.802375484932497 4.640206613813902 35.65591425488773 H 0.0 **** 0.06
21951 C 24.740177807663173 47.142224603290686 100.94837162104287 C 0.0 **** -0.24
21952 H 24.037735678654883 47.90076974569001 101.29422391651357 H 0.0 **** 0.06
21953 H 25.72934989065493 47.58560678960532 100.84032431850812 H 0.0 **** 0.06
21954 H 24.408140802294966 46.75182013763373 99.98634966048411 H 0.0 **** 0.06
21955 H 24.78291189565752 46.32919438333016 101.67364134412118 H 0.0 **** 0.06
21956 C 57.36787534008444 120.46395660274705 111.06266482930303 C 0.0 **** -0.24
21957 H 58.377811047323945 120.26299093692336 110.70359212841632 H 0.0 **** 0.06
21958 H 56.894913214852465 119.5267267525725 111.35736222073858 H 0.0 **** 0.06
21959 H 56.78609210117645 120.93063714765151 110.26752143047975 H 0.0 **** 0.06
21960 H 57.41471010860951 121.13420907612525 111.92066516014725 H 0.0 **** 0.06
21961 C 61.44941499294339 22.449758119850458 67.76068684601992 C 0.0 **** -0.24
21962 H 61.74672412744525 21.606264799626132 68.38449596569313 H 0.0 **** 0.06
21963 H 61.860713030905 23.369958449615382 68.17566485616297 H 0.0 **** 0.06
21964 H 60.36192849289591 22.515714871967617 67.73388636198817 H 0.0 **** 0.06
21965 H 61.830212522772456 22.30583250228014 66.74955375486056 H 0.0 **** 0.06
21966 C 74.89512543313418 121.22035773378035 52.80960530499155 C 0.0 **** -0.24
21967 H 75.53090480057152 121.29888939281655 51.92779702842428 H 0.0 **** 0.06
21968 H 75.10642727672763 122.05142491673605 53.48321601766496 H 0.0 **** 0.06
21969 H 75.09613672796728 120.2780577555216 53.32014103258784 H 0.0 **** 0.06
21970 H 73.84893440627931 121.2541902252158 52.50694357861089 H 0.0 **** 0.06
21971 C 59.22779375837838 92.60529994025492 32.31261889089791 C 0.0 **** -0.24
21972 H 59.48230948847767 93.65093024695378 32.140600134306396 H 0.0 **** 0.06
21973 H 59.97125501944727 92.15363769947751 32.970146150891765 H 0.0 **** 0.06
21974 H 59.21346747112206 92.07458596470775 31.360485538318017 H 0.0 **** 0.06
21975 H 58.243963136582636 92.54294074800278 32.77746413037022 H 0.0 **** 0.06
21976 C 61.35714798119663 47.75360358944053 34.65965050725163 C 0.0 **** -0.24
21977 H 60.581667040586936 47.08798312702484 34.28204738353678 H 0.0 **** 0.06
21978 H 62.224769182731364 47.70975704806156 34.00076702661554 H 0.0 **** 0.06
21979 H 61.645520571171176 47.44275254660255 35.66316048547106 H 0.0 **** 0.06
21980 H 60.97584004929067 48.77407816334423 34.6914680573267 H 0.0 **** 0.06
21981 C 72.5182558773336 87.92540499299929 123.4495313487314 C 0.0 **** -0.24
21982 H 71.73309752885922 87.2467991444421 123.78406383432923 H 0.0 **** 0.06
21983 H 72.26873679337012 88.94406228073802 123.74649098707664 H 0.0 **** 0.06
21984 H 72.60339269703424 87.87319442283206 122.36363204095181 H 0.0 **** 0.06
21985 H 73.46586049788245 87.63592762123653 123.9017997458925 H 0.0 **** 0.06
21986 C 39.689833447415936 62.11900998708677 41.34980530437599 C 0.0 **** -0.24
21987 H 40.75959141208763 62.322394224464375 41.302590776854174 H 0.0 **** 0.06
21988 H 39.45035665244052 61.65531747244785 42.3065485116403 H 0.0 **** 0.06
21989 H 39.413345968491875 61.445112104281435 40.539084160447885 H 0.0 **** 0.06
21990 H 39.138126158984576 63.0536174978823 41.24977867932756 H 0.0 **** 0.06
21991 C 112.70679538102846 41.1719902625303 0.7550968798775557 C 0.0 **** -0.24
21992 H 111.8155667932676 41.293735925059366 1.3695763253778068 H 0.0 **** 0.06
21993 H 113.50655792074664 40.74011173250046 1.35811377700702 H 0.0 **** 0.06
21994 H 113.02208276434905 42.143898123104655 0.3759050694993107 H 0.0 **** 0.06
21995 H 112.48402049291875 40.51022592337606 -0.08150322912416641 H 0.0 **** 0.06
21996 C 48.40229502535523 104.95135437639897 36.65053379562855 C 0.0 **** -0.24
21997 H 48.578310266432254 105.05329077534896 37.72233190544287 H 0.0 **** 0.06
21998 H 47.45578343348603 104.43630914368987 36.486096301197904 H 0.0 **** 0.06
21999 H 49.21250217447968 104.37670804144511 36.20285380143818 H 0.0 **** 0.06
22000 H 48.36263127066613 105.9404289395672 36.19354714709854 H 0.0 **** 0.06
22001 C 55.63612426414363 0.025039553880212395 95.1075784261705 C 0.0 **** -0.24
22002 H 55.32660799781081 -0.9903678035683434 94.85839757614616 H 0.0 **** 0.06
22003 H 56.66763527450041 0.17767615245881174 94.7922587507947 H 0.0 **** 0.06
22004 H 55.559460362339735 0.17281641156094985 96.18535028679969 H 0.0 **** 0.06
22005 H 54.98902295899097 0.7375979640243742 94.59602013377963 H 0.0 **** 0.06
22006 C 47.20272955399957 127.1472487436061 119.60175631383012 C 0.0 **** -0.24
22007 H 47.35957843272176 126.3065739616518 118.92636992427887 H 0.0 **** 0.06
22008 H 46.48743448299139 126.86375419776726 120.37417284899077 H 0.0 **** 0.06
22009 H 46.81487055877875 127.99666158858952 119.04013843107037 H 0.0 **** 0.06
22010 H 48.15022232120963 127.42124383300879 120.06624381911568 H 0.0 **** 0.06
22011 C 16.859206869013654 14.070976167860124 128.2162244611622 C 0.0 **** -0.24
22012 H 17.644949336264425 13.579608517700478 128.7909027471215 H 0.0 **** 0.06
22013 H 17.153778013372474 14.121534327188328 127.16737401588915 H 0.0 **** 0.06
22014 H 16.705746088955244 15.080163536445639 128.6000749314594 H 0.0 **** 0.06
22015 H 15.93285996360138 13.503600773175094 128.30740590499022 H 0.0 **** 0.06
22016 C 93.00819496955856 46.63939312103119 119.50089232908378 C 0.0 **** -0.24
22017 H 92.63537869161345 46.63220964223089 120.5247394102664 H 0.0 **** 0.06
22018 H 92.40533967377863 45.9668163133594 118.88996725077084 H 0.0 **** 0.06
22019 H 94.04638127113779 46.30774168908994 119.48889262070611 H 0.0 **** 0.06
22020 H 92.94524391535882 47.65034409777945 119.09870613256324 H 0.0 **** 0.06
22021 C 48.234799137459504 5.70908948775093 58.89344191748228 C 0.0 **** -0.24
22022 H 48.22748809820874 5.091251307521588 57.99555774110489 H 0.0 **** 0.06
22023 H 47.32028795594417 5.536160840870764 59.4611878798686 H 0.0 **** 0.06
22024 H 48.29409828772964 6.760174146931604 58.61001265111054 H 0.0 **** 0.06
22025 H 49.09847410914418 5.44884499790669 59.506192172987255 H 0.0 **** 0.06
22026 C 22.95201791828933 76.33353285236426 84.6549519446325 C 0.0 **** -0.24
22027 H 22.0028103685147 76.82497970789679 84.86985080112862 H 0.0 **** 0.06
22028 H 23.575313023475218 76.34067398291803 85.54873415867843 H 0.0 **** 0.06
22029 H 23.4619695861723 76.86526477822663 83.85133141684815 H 0.0 **** 0.06
22030 H 22.766649660482358 75.30405284309732 84.34916449156572 H 0.0 **** 0.06
22031 C 93.50826848695434 37.58582641685658 16.805408049175014 C 0.0 **** -0.24
22032 H 93.25715585986339 38.261634329697785 15.988132966178114 H 0.0 **** 0.06
22033 H 93.72602262801658 38.16636756188984 17.702011415247455 H 0.0 **** 0.06
22034 H 94.38278499718788 36.99453052260435 16.532935042922247 H 0.0 **** 0.06
22035 H 92.66612947748638 36.92061001623236 16.998658022265147 H 0.0 **** 0.06
22036 C 60.82772690502247 41.38875258009932 84.23199875562754 C 0.0 **** -0.24
22037 H 60.148729436885986 40.7155334297085 84.75471459562945 H 0.0 **** 0.06
22038 H 60.75482925019824 41.21587032329319 83.1584038085434 H 0.0 **** 0.06
22039 H 61.84957907327052 41.20204034817658 84.56209139847945 H 0.0 **** 0.06
22040 H 60.556552192189514 42.42085309969997 84.45287933785829 H 0.0 **** 0.06
22041 C 126.19970982550836 93.10978687543833 126.89745923698524 C 0.0 **** -0.24
22042 H 126.50946035082455 93.25038042208236 127.93271548585858 H 0.0 **** 0.06
22043 H 126.95105208553133 93.53671102126586 126.23270057087399 H 0.0 **** 0.06
22044 H 125.2439275318738 93.60813704612272 126.73360619679181 H 0.0 **** 0.06
22045 H 126.09506989173826 92.04472302096788 126.69176550143646 H 0.0 **** 0.06
22046 C 66.07959491208729 44.926679252084455 61.773621556921455 C 0.0 **** -0.24
22047 H 66.20376998580326 45.587440003074676 60.91584755768086 H 0.0 **** 0.06
22048 H 66.86266944944946 44.167562570720634 61.76305344096912 H 0.0 **** 0.06
22049 H 65.10356085659465 44.44316301994502 61.72195821199327 H 0.0 **** 0.06
22050 H 66.14954814181006 45.507440695449645 62.692994236096496 H 0.0 **** 0.06
22051 C 25.344602190636607 26.69789240737913 82.72454582352373 C 0.0 **** -0.24
22052 H 25.248266132153447 25.61611142475499 82.63501533702765 H 0.0 **** 0.06
22053 H 25.681852556949664 27.112880541161587 81.77435029138945 H 0.0 **** 0.06
22054 H 26.07006398944616 26.934726470980593 83.5033579452392 H 0.0 **** 0.06
22055 H 24.37752972051633 27.12806995130194 82.98667105624668 H 0.0 **** 0.06
22056 C 9.506189651674276 21.014314197894755 26.425696183468496 C 0.0 **** -0.24
22057 H 10.18891609551224 20.706703724037894 25.633015337390148 H 0.0 **** 0.06
22058 H 8.694730432247184 21.60366222870116 25.99765488338135 H 0.0 **** 0.06
22059 H 10.046341291991382 21.615784439905987 27.156551982842082 H 0.0 **** 0.06
22060 H 9.095010888248567 20.131431814413325 26.91420732989532 H 0.0 **** 0.06
22061 C 88.80217086266111 63.68591034454431 90.49774464034394 C 0.0 **** -0.24
22062 H 89.16998970775416 62.662518411416386 90.56801332236904 H 0.0 **** 0.06
22063 H 89.3828010472946 64.23089104955352 89.75358600228296 H 0.0 **** 0.06
22064 H 88.90398789113755 64.17505453844313 91.4670370518011 H 0.0 **** 0.06
22065 H 87.75316447964067 63.67559538364742 90.20414184325092 H 0.0 **** 0.06
22066 C 69.66448383496528 127.3123228478596 14.66810172195622 C 0.0 **** -0.24
22067 H 69.13447268693037 127.8109215011844 13.856621574031308 H 0.0 **** 0.06
22068 H 69.09958815416432 127.42432379723465 15.59358544988585 H 0.0 **** 0.06
22069 H 70.65054875389616 127.759696375553 14.787262502753322 H 0.0 **** 0.06
22070 H 69.77293994555482 126.25289567477381 14.43328291306483 H 0.0 **** 0.06
22071 C 30.152671251954388 84.71087543834561 48.77957351373715 C 0.0 **** -0.24
22072 H 30.89598488260512 84.36731611009782 48.06038488333624 H 0.0 **** 0.06
22073 H 30.61582646421339 84.81397907916407 49.76040596955892 H 0.0 **** 0.06
22074 H 29.3396375632947 83.9867601266471 48.835014699058206 H 0.0 **** 0.06
22075 H 29.75803714891969 85.6755975622368 48.460607024092155 H 0.0 **** 0.06
22076 C 65.00573139072065 64.61173459870915 101.96278165883307 C 0.0 **** -0.24
22077 H 65.06989045035789 64.73844130431397 103.04398679917688 H 0.0 **** 0.06
22078 H 63.99047718440249 64.32131478235988 101.69184491669547 H 0.0 **** 0.06
22079 H 65.70377079197527 63.83647536988869 101.6464659851025 H 0.0 **** 0.06
22080 H 65.25904830810504 65.5510341542167 101.47179966195822 H 0.0 **** 0.06
22081 C 59.63265121798429 103.70176698356306 30.672394216531842 C 0.0 **** -0.24
22082 H 59.57760370484107 103.34985540475441 31.702374051691407 H 0.0 **** 0.06
22083 H 60.40546997312043 103.14576593872016 30.1400657726155 H 0.0 **** 0.06
22084 H 59.8784605257822 104.76359626169256 30.664404823261577 H 0.0 **** 0.06
22085 H 58.670775799446346 103.54759508051376 30.18374592432187 H 0.0 **** 0.06
22086 C 105.8331064644996 68.89670467279387 20.92206285391194 C 0.0 **** -0.24
22087 H 106.27457986732908 68.6863787381771 19.94841114449116 H 0.0 **** 0.06
22088 H 104.86179653256988 69.3739405726707 20.785411909632103 H 0.0 **** 0.06
22089 H 106.48998661444303 69.56134436021239 21.483024540399583 H 0.0 **** 0.06
22090 H 105.70493527211482 67.96398091076593 21.47199561289733 H 0.0 **** 0.06
22091 C 70.3354608810837 18.032217139986642 96.21992437249577 C 0.0 **** -0.24
22092 H 70.68255398445201 18.949736240531678 96.6950880779579 H 0.0 **** 0.06
22093 H 70.74662610111973 17.17191042408963 96.74886863648408 H 0.0 **** 0.06
22094 H 70.66571377829412 18.013145892512625 95.18123298777539 H 0.0 **** 0.06
22095 H 69.2462331075269 17.994849890921913 96.25544999845042 H 0.0 **** 0.06
22096 C 113.37173979847964 52.520938102595764 86.91094620430903 C 0.0 **** -0.24
22097 H 112.95299604031825 53.37115578215386 87.44833523520833 H 0.0 **** 0.06
22098 H 112.78451949298946 51.628341743418474 87.12713254218738 H 0.0 **** 0.06
22099 H 114.40258892149396 52.36299469961361 87.22862443742144 H 0.0 **** 0.06
22100 H 113.34824076781169 52.7215115530378 85.8398185014411 H 0.0 **** 0.06
22101 C 44.01985854497421 52.20216132360058 25.811726292677122 C 0.0 **** -0.24
22102 H 44.79531385831936 51.724230916746365 25.212774646361822 H 0.0 **** 0.06
22103 H 44.18708502948387 51.97994992693147 26.86607581616647 H 0.0 **** 0.06
22104 H 43.04334257426177 51.82337920930701 25.51082745528663 H 0.0 **** 0.06
22105 H 44.05501401160653 53.28059094034883 25.657327058269175 H 0.0 **** 0.06
22106 C 128.02614730373793 29.51730459034321 120.17040341327632 C 0.0 **** -0.24
22107 H 128.2682496713318 29.40697010349553 121.22738269789542 H 0.0 **** 0.06
22108 H 128.75581673094362 28.97093688174376 119.57173790346539 H 0.0 **** 0.06
22109 H 128.0509980076957 30.57310508409263 119.90060120637531 H 0.0 **** 0.06
22110 H 127.02924366488784 29.117471271122547 119.98306692681177 H 0.0 **** 0.06
22111 C 39.719182317820675 81.96309872231475 14.8486139618621 C 0.0 **** -0.24
22112 H 40.61758825080939 81.58855278579549 14.357803812814836 H 0.0 **** 0.06
22113 H 38.86214164232244 81.36405588529291 14.540528843825314 H 0.0 **** 0.06
22114 H 39.557392838167765 83.00327215594874 14.56523103910672 H 0.0 **** 0.06
22115 H 39.840651328056545 81.89556913709353 15.928888188109482 H 0.0 **** 0.06
22116 C 103.76924237581393 61.42131762524102 120.60294898130675 C 0.0 **** -0.24
22117 H 104.35780509141289 62.22672887315238 120.16442522859143 H 0.0 **** 0.06
22118 H 103.18628808310113 60.93132178415773 119.82193493574823 H 0.0 **** 0.06
22119 H 103.09750703984643 61.83109141157796 121.35667141288644 H 0.0 **** 0.06
22120 H 104.43680202472193 60.69503145300855 121.06790171901163 H 0.0 **** 0.06
22121 C 56.23648466448637 119.07844824594186 82.3295683798346 C 0.0 **** -0.24
22122 H 55.83099472448927 118.73351234161066 81.37782594490703 H 0.0 **** 0.06
22123 H 57.20248514131711 118.60489022203417 82.50473214911904 H 0.0 **** 0.06
22124 H 55.55077068599448 118.81276973446445 83.13367701518118 H 0.0 **** 0.06
22125 H 56.36197708135941 120.16080559904354 82.30041906161942 H 0.0 **** 0.06
22126 C 118.55151789612242 46.29457968641617 37.50439766270392 C 0.0 **** -0.24
22127 H 117.5375998896758 45.92003150207876 37.64434190932138 H 0.0 **** 0.06
22128 H 119.2648315455101 45.49639126689647 37.713298203071076 H 0.0 **** 0.06
22129 H 118.72824117538153 47.12705523469481 38.184554074268135 H 0.0 **** 0.06
22130 H 118.67541346865862 46.63251624126178 36.47616900667015 H 0.0 **** 0.06
22131 C 72.89234431050443 64.81564315561207 95.31003902278309 C 0.0 **** -0.24
22132 H 71.90148827818757 65.2546373011072 95.4245506219774 H 0.0 **** 0.06
22133 H 73.64859323693258 65.5938870054248 95.41660631417209 H 0.0 **** 0.06
22134 H 72.97551673449072 64.3618032266061 94.32190228957336 H 0.0 **** 0.06
22135 H 73.04300770877148 64.05387045897311 96.0738159999292 H 0.0 **** 0.06
22136 C 76.34100611362757 34.569159837253835 19.655060249155383 C 0.0 **** -0.24
22137 H 75.36980852130333 34.96572341829713 19.951772325369745 H 0.0 **** 0.06
22138 H 76.21397421717697 33.56451669556952 19.250394231088535 H 0.0 **** 0.06
22139 H 76.99902270586031 34.531817368876034 20.522526159445363 H 0.0 **** 0.06
22140 H 76.77879116093177 35.214607216498536 18.893786063652158 H 0.0 **** 0.06
22141 C 96.39726326204965 37.41644341271242 101.11681041043252 C 0.0 **** -0.24
22142 H 96.15513668970878 36.59537014241323 101.79175477147976 H 0.0 **** 0.06
22143 H 95.61619883301422 38.17460283874787 101.17264145428605 H 0.0 **** 0.06
22144 H 96.46693085753944 37.04001325776928 100.09574317865463 H 0.0 **** 0.06
22145 H 97.35177986384697 37.85586096821728 101.40701164314288 H 0.0 **** 0.06
22146 C 85.17278094569197 75.47630523402542 99.85304337822832 C 0.0 **** -0.24
22147 H 84.36525280834093 74.81597734104672 100.17034747643704 H 0.0 **** 0.06
22148 H 85.39819399900144 75.29482414678796 98.80220988325911 H 0.0 **** 0.06
22149 H 86.05948506906574 75.28098160326718 100.45507068280439 H 0.0 **** 0.06
22150 H 84.86579312991081 76.51415735691926 99.9861973413792 H 0.0 **** 0.06
22151 C 64.06199655405645 30.64816921112765 42.12267464858306 C 0.0 **** -0.24
22152 H 64.7418077703503 31.34831019669626 41.637536773715325 H 0.0 **** 0.06
22153 H 64.06515436365771 29.70370561424545 41.57802150784022 H 0.0 **** 0.06
22154 H 63.05404246099803 31.063832163179427 42.123841855589006 H 0.0 **** 0.06
22155 H 64.38609128779903 30.477695075567183 43.14839026969709 H 0.0 **** 0.06
22156 C 71.81811135942493 98.350849637464 2.1078989372179535 C 0.0 **** -0.24
22157 H 71.80248684702099 98.57915786253074 1.0412045966072867 H 0.0 **** 0.06
22158 H 71.90063490940713 99.27778325193412 2.6758341744366874 H 0.0 **** 0.06
22159 H 72.67307325058313 97.71195810727508 2.328989964966212 H 0.0 **** 0.06
22160 H 70.89851162185988 97.83571720020936 2.3817716239507547 H 0.0 **** 0.06
22161 C 109.52057664284133 80.74892278779959 100.67256859789907 C 0.0 **** -0.24
22162 H 108.98317044647446 80.76099596169416 101.62134483367763 H 0.0 **** 0.06
22163 H 109.5891555676843 79.72450632204107 100.3073176239669 H 0.0 **** 0.06
22164 H 110.5233402929818 81.15104715343773 100.818823702609 H 0.0 **** 0.06
22165 H 108.98662431532472 81.36007355048594 99.94505357064139 H 0.0 **** 0.06
22166 C 96.21947951919371 99.27452868828674 102.28900818533879 C 0.0 **** -0.24
22167 H 95.17692615063444 99.09528990064871 102.55157321301795 H 0.0 **** 0.06
22168 H 96.27324350499835 100.0529408981695 101.52831422606039 H 0.0 **** 0.06
22169 H 96.65914025616938 98.35504625790058 101.90100427681858 H 0.0 **** 0.06
22170 H 96.7672012977467 99.59345512268348 103.17619435076085 H 0.0 **** 0.06
22171 C 115.56678009164597 8.865743028767383 124.6310578269584 C 0.0 **** -0.24
22172 H 114.85469724284441 8.869414319927373 123.80603601679996 H 0.0 **** 0.06
22173 H 115.05408167764365 8.584853673111184 125.55169730297186 H 0.0 **** 0.06
22174 H 115.9978021446816 9.860400476180999 124.74282989216513 H 0.0 **** 0.06
22175 H 116.3595235083037 8.146338002399077 124.42334453766762 H 0.0 **** 0.06
22176 C 96.9524292659894 72.15571607199122 54.97984298597669 C 0.0 **** -0.24
22177 H 95.87151457168878 72.12071397719673 54.84630007400639 H 0.0 **** 0.06
22178 H 97.29782947905738 73.18409438857348 54.87132003657268 H 0.0 **** 0.06
22179 H 97.43162809439315 71.52906963311727 54.22892349190927 H 0.0 **** 0.06
22180 H 97.20672895425326 71.78964499679542 55.97469982174377 H 0.0 **** 0.06
22181 C 43.53404214653381 121.67448145322356 43.772772755944516 C 0.0 **** -0.24
22182 H 44.49289909353621 122.00370380646551 43.371084412288496 H 0.0 **** 0.06
22183 H 43.69339820517658 120.83355355034026 44.448676189094044 H 0.0 **** 0.06
22184 H 42.884768729998626 121.36490255487794 42.95414684952854 H 0.0 **** 0.06
22185 H 43.06722710185733 122.495119845497 44.31692050878587 H 0.0 **** 0.06
22186 C 128.26637975840197 87.63767239861221 117.87148322005199 C 0.0 **** -0.24
22187 H 127.73069805460165 88.36088513770488 117.25615977297328 H 0.0 **** 0.06
22188 H 127.76286047659187 87.53488688428976 118.83282548491992 H 0.0 **** 0.06
22189 H 129.2880024780697 87.98264704602533 118.03115471805496 H 0.0 **** 0.06
22190 H 128.2840733001019 86.67237396975457 117.36438715788283 H 0.0 **** 0.06
22191 C 35.98390208988736 54.514622932945 71.42905693893124 C 0.0 **** -0.24
22192 H 36.23530034722014 55.511451414418616 71.06604537607939 H 0.0 **** 0.06
22193 H 34.92064206267035 54.47423731693431 71.66954746205619 H 0.0 **** 0.06
22194 H 36.56814876259429 54.29439093183805 72.32160221519928 H 0.0 **** 0.06
22195 H 36.20994088717303 53.779050614726174 70.65636660093412 H 0.0 **** 0.06
22196 C 121.42409086582299 54.14071606157458 89.729455582394 C 0.0 **** -0.24
22197 H 121.62439469260252 54.86219174632876 90.52141370541227 H 0.0 **** 0.06
22198 H 121.47076870365248 53.13149093365158 90.13816852706412 H 0.0 **** 0.06
22199 H 122.16969070914766 54.24987396029124 88.94276579675295 H 0.0 **** 0.06
22200 H 120.43096347910907 54.32078298197132 89.3173519632225 H 0.0 **** 0.06
22201 C 60.2863639709626 101.34179603972292 76.41148726273826 C 0.0 **** -0.24
22202 H 61.28843709197734 101.59813132981239 76.7540030973795 H 0.0 **** 0.06
22203 H 60.18463782974433 100.25782406781117 76.36573806940493 H 0.0 **** 0.06
22204 H 60.123201598037696 101.76432705869797 75.41910369136451 H 0.0 **** 0.06
22205 H 59.550432464194245 101.74838218703854 77.10504546662867 H 0.0 **** 0.06
22206 C 125.62797854209958 56.309662466170494 122.83425030650632 C 0.0 **** -0.24
22207 H 126.37249664499376 55.758703190177584 122.25811817339037 H 0.0 **** 0.06
22208 H 124.80963828599317 56.60836471834779 122.17812171202202 H 0.0 **** 0.06
22209 H 126.08864042796796 57.19680098654163 123.26770997797135 H 0.0 **** 0.06
22210 H 125.24228808097394 55.67365063361461 123.63052114150149 H 0.0 **** 0.06
22211 C 33.231215921356146 60.616285977529046 22.260371325699708 C 0.0 **** -0.24
22212 H 33.954160342335335 59.86952638547869 21.93155228230637 H 0.0 **** 0.06
22213 H 33.286938406263076 60.72293866139114 23.344242509889142 H 0.0 **** 0.06
22214 H 32.227504665042915 60.30001453968018 21.976356251000936 H 0.0 **** 0.06
22215 H 33.45759789700586 61.57295775997284 21.788981037664826 H 0.0 **** 0.06
22216 C 11.832933553406804 40.081934790196726 117.04906292818464 C 0.0 **** -0.24
22217 H 12.485370635698033 39.306270882369176 116.65015851214608 H 0.0 **** 0.06
22218 H 12.227370524286318 41.061941171697924 116.77990784906888 H 0.0 **** 0.06
22219 H 11.785570655959202 39.995222943173985 118.13452378641387 H 0.0 **** 0.06
22220 H 10.832558651018854 39.96571071021344 116.63113645938759 H 0.0 **** 0.06
22221 C 13.576717416788451 29.775736343175794 102.6944863591448 C 0.0 **** -0.24
22222 H 13.079866155947474 28.82383589366067 102.8790284100223 H 0.0 **** 0.06
22223 H 12.835194325879709 30.524648320025562 102.41322682948882 H 0.0 **** 0.06
22224 H 14.299673444874827 29.65896994753237 101.88714958964098 H 0.0 **** 0.06
22225 H 14.092679970106577 30.097997589791618 103.59973322197516 H 0.0 **** 0.06
22226 C 52.27971002073579 34.090720301095104 83.49775073547718 C 0.0 **** -0.24
22227 H 52.670953529269084 33.6890113919504 84.43202633442819 H 0.0 **** 0.06
22228 H 51.6602403600683 33.336969297846565 83.01016964572501 H 0.0 **** 0.06
22229 H 53.107577204411754 34.35985098519956 82.8419542293865 H 0.0 **** 0.06
22230 H 51.67843869757492 34.97588377769446 83.70586104089399 H 0.0 **** 0.06
22231 C 93.86499921854676 127.47479071029622 79.0339331789039 C 0.0 **** -0.24
22232 H 93.48003211343982 127.47936143748397 80.05412921763904 H 0.0 **** 0.06
22233 H 93.0750587032224 127.1659293124339 78.34882214656534 H 0.0 **** 0.06
22234 H 94.7000772956276 126.7775464967586 78.96454590586934 H 0.0 **** 0.06
22235 H 94.20569680993133 128.47632534758867 78.77003731022785 H 0.0 **** 0.06
22236 C 52.20025006832759 115.32721440624579 8.303006741899466 C 0.0 **** -0.24
22237 H 51.48786427740953 114.99345446481658 9.057528617713501 H 0.0 **** 0.06
22238 H 52.73673428532982 116.2022443521526 8.673048466821257 H 0.0 **** 0.06
22239 H 51.66692477227588 115.58703596149155 7.389263184470607 H 0.0 **** 0.06
22240 H 52.91005294836202 114.52677227861557 8.09582637352976 H 0.0 **** 0.06
22241 C 92.15542064852977 8.560008814462492 114.52629367392677 C 0.0 **** -0.24
22242 H 93.00082864933219 7.968162061444104 114.17417117778814 H 0.0 **** 0.06
22243 H 91.73245993651855 9.11958669047371 113.69154260488432 H 0.0 **** 0.06
22244 H 92.49367382640881 9.254062658933293 115.29593939725015 H 0.0 **** 0.06
22245 H 91.3971347611022 7.897101856008192 114.94213896493932 H 0.0 **** 0.06
22246 C 111.56333934919587 5.987682522745075 108.90938383602277 C 0.0 **** -0.24
22247 H 111.0664686086115 5.029831002345826 108.7527075879495 H 0.0 **** 0.06
22248 H 111.06537081948926 6.5257565739086445 109.7177898550338 H 0.0 **** 0.06
22249 H 111.51135592107624 6.577115030297179 107.99471644500373 H 0.0 **** 0.06
22250 H 112.60619255065143 5.816767448401414 109.17447937964687 H 0.0 **** 0.06
22251 C 126.03957332201028 49.17213008228447 38.151025139436186 C 0.0 **** -0.24
22252 H 125.40678956982642 49.886426969088916 38.677836446878445 H 0.0 **** 0.06
22253 H 126.02582149690049 49.39185174942128 37.08340828144881 H 0.0 **** 0.06
22254 H 125.66565849835017 48.16257851713692 38.319772811768004 H 0.0 **** 0.06
22255 H 127.06105181520299 49.24850240244615 38.52488270278073 H 0.0 **** 0.06
22256 C 48.77928426607727 18.224518487312373 27.2803414617305 C 0.0 **** -0.24
22257 H 48.323733610156026 19.209172174677747 27.384687891404226 H 0.0 **** 0.06
22258 H 48.10997010358645 17.468736198355934 27.693495492258016 H 0.0 **** 0.06
22259 H 49.727560992512224 18.203959126178184 27.81834526116279 H 0.0 **** 0.06
22260 H 48.955872358054165 18.016206450037487 26.224837202096978 H 0.0 **** 0.06
22261 C 10.940566329661351 90.37278478364209 49.04436058639388 C 0.0 **** -0.24
22262 H 11.439565157362608 90.68653288771912 48.12682539128383 H 0.0 **** 0.06
22263 H 11.68514249873445 90.01947845730336 49.759299439707235 H 0.0 **** 0.06
22264 H 10.24075563880416 89.56853853042406 48.820732895131044 H 0.0 **** 0.06
22265 H 10.399920998355725 91.21797481855077 49.46999057077673 H 0.0 **** 0.06
22266 C 125.86470678739371 63.97680128818729 24.917433588819925 C 0.0 **** -0.24
22267 H 125.18004192745425 64.0906210166417 24.07740291807874 H 0.0 **** 0.06
22268 H 125.34976153341275 63.48070906776195 25.741032063283306 H 0.0 **** 0.06
22269 H 126.2065953299692 64.95989354811945 25.24266021762365 H 0.0 **** 0.06
22270 H 126.72125905908666 63.37736145606982 24.61029107974405 H 0.0 **** 0.06
22271 C 47.50037155861105 6.564364108433324 89.4460093327991 C 0.0 **** -0.24
22272 H 48.483134021420284 6.256063068214914 89.08954072136589 H 0.0 **** 0.06
22273 H 47.61455125379439 7.175416908549323 90.34182013141742 H 0.0 **** 0.06
22274 H 46.90583652177443 5.682635972981316 89.68090280283062 H 0.0 **** 0.06
22275 H 46.99909982795975 7.145245348048633 88.67148616721931 H 0.0 **** 0.06
22276 C 50.61047940383483 95.5220314618502 86.67522066466314 C 0.0 **** -0.24
22277 H 51.6009795575696 95.38061226850256 86.24477388493983 H 0.0 **** 0.06
22278 H 49.86287271379287 95.49685276931606 85.88121383467711 H 0.0 **** 0.06
22279 H 50.56869621973274 96.48576494070781 87.18230191270906 H 0.0 **** 0.06
22280 H 50.407958676727475 94.72571446510382 87.39076522061741 H 0.0 **** 0.06
22281 C 25.421521071135885 53.68011635182148 36.72228144794627 C 0.0 **** -0.24
22282 H 25.661932327521214 53.16917496005283 35.789742004690254 H 0.0 **** 0.06
22283 H 26.291381640560587 53.66156922146229 37.380477605664396 H 0.0 **** 0.06
22284 H 24.587758030299227 53.174256542039814 37.20830250483573 H 0.0 **** 0.06
22285 H 25.147208282897168 54.71319043227862 36.5106807360811 H 0.0 **** 0.06
22286 C 122.02833658792113 74.56617820785864 22.134991345137735 C 0.0 **** -0.24
22287 H 122.02506070651802 73.92150132498527 23.013141890458883 H 0.0 **** 0.06
22288 H 121.06041037858586 74.50599493097853 21.6363197536013 H 0.0 **** 0.06
22289 H 122.8112069477735 74.24091134057329 21.448880560516386 H 0.0 **** 0.06
22290 H 122.21670095328422 75.59552339849178 22.440077913966263 H 0.0 **** 0.06
22291 C 118.20357246373936 39.607168750795594 35.71241140465522 C 0.0 **** -0.24
22292 H 118.16990983051139 38.56554427999504 36.030979655611354 H 0.0 **** 0.06
22293 H 117.41218866046162 40.16537711463997 36.21190968079504 H 0.0 **** 0.06
22294 H 118.0605281910178 39.66073874727515 34.63282949401199 H 0.0 **** 0.06
22295 H 119.17131781462311 40.03579663693923 35.972744914716365 H 0.0 **** 0.06
22296 C 20.250776340441718 129.2396447403621 19.633385602558747 C 0.0 **** -0.24
22297 H 19.90064692943912 128.38695211977262 19.052214265795044 H 0.0 **** 0.06
22298 H 21.341141835370507 129.24783971867757 19.644269272887897 H 0.0 **** 0.06
22299 H 19.876971254813597 129.16270787943063 20.654221988901355 H 0.0 **** 0.06
22300 H 19.885079427471737 130.16219491157685 19.1810433711874 H 0.0 **** 0.06
22301 C 62.805456845882105 73.63838247210522 127.76115247057677 C 0.0 **** -0.24
22302 H 62.540852322203875 72.60151801048798 127.55266498865217 H 0.0 **** 0.06
22303 H 62.44466997124337 74.27458459022391 126.9520324243706 H 0.0 **** 0.06
22304 H 63.88896751477196 73.72820808757513 127.83937946968697 H 0.0 **** 0.06
22305 H 62.346047370260095 73.94907075685126 128.69997313584415 H 0.0 **** 0.06
22306 C 50.691919059169976 0.1618770531588325 1.8538687023241778 C 0.0 **** -0.24
22307 H 51.26789915748668 0.6886562149369979 2.614411986313172 H 0.0 **** 0.06
22308 H 51.254446147526465 0.1443821439334556 0.9199684303534355 H 0.0 **** 0.06
22309 H 49.74201920962042 0.6725068527292706 1.6972228449825764 H 0.0 **** 0.06
22310 H 50.50381556524064 -0.8601744256448569 2.184293245367286 H 0.0 **** 0.06
22311 C 12.466164055971888 112.97263522841257 78.20796283625839 C 0.0 **** -0.24
22312 H 12.083376332755847 111.9674483812579 78.03006270310343 H 0.0 **** 0.06
22313 H 11.804825723887916 113.70088363217343 77.73816888102027 H 0.0 **** 0.06
22314 H 13.465964918105016 113.06113946271739 77.78261389662242 H 0.0 **** 0.06
22315 H 12.509687109569086 113.15990625956812 79.28094502758594 H 0.0 **** 0.06
22316 C 30.47466593780925 83.24756023766619 67.27800557476361 C 0.0 **** -0.24
22317 H 31.375783374381427 83.1194956101117 66.67783033745756 H 0.0 **** 0.06
22318 H 30.489275826630575 82.54254431114288 68.11018083142933 H 0.0 **** 0.06
22319 H 29.596460131495462 83.06110380265646 66.65978794725876 H 0.0 **** 0.06
22320 H 30.43744516541659 84.26543535709364 67.66460777166387 H 0.0 **** 0.06
22321 C 29.1738018688443 12.359231004026952 35.72531275106394 C 0.0 **** -0.24
22322 H 29.812674199349566 11.772135646132028 36.38483124130812 H 0.0 **** 0.06
22323 H 28.22554173762272 12.56046152669228 36.224825044739845 H 0.0 **** 0.06
22324 H 28.990720517937163 11.801913875952238 34.80719170814697 H 0.0 **** 0.06
22325 H 29.666278712255348 13.301836909517533 35.48656365301542 H 0.0 **** 0.06
22326 C 66.93317616105793 121.29245816296887 127.41489368025194 C 0.0 **** -0.24
22327 H 67.91403216131943 121.7108363402964 127.18893421203276 H 0.0 **** 0.06
22328 H 67.04585880938271 120.4570678491701 128.10689164889672 H 0.0 **** 0.06
22329 H 66.46735373905483 120.94154335245321 126.49440701614171 H 0.0 **** 0.06
22330 H 66.30713538020592 122.06002020989249 127.87037138429136 H 0.0 **** 0.06
22331 C 86.92151722679557 24.14438554175024 75.91721717304014 C 0.0 **** -0.24
22332 H 87.78361802483349 23.51437606190123 76.13849255432763 H 0.0 **** 0.06
22333 H 86.02511714434903 23.697353711801014 76.34673072447501 H 0.0 **** 0.06
22334 H 86.8035009688875 24.230868805069434 74.836722230437 H 0.0 **** 0.06
22335 H 87.07600706070244 25.13460827986455 76.34652280294156 H 0.0 **** 0.06
22336 C 77.84784936276202 20.07045299011091 77.37695526181936 C 0.0 **** -0.24
22337 H 77.71837324382265 19.018020709266693 77.62829102819634 H 0.0 **** 0.06
22338 H 77.00139972688613 20.407781457493485 76.77818733752575 H 0.0 **** 0.06
22339 H 78.76890034061351 20.19661164074782 76.80732854582412 H 0.0 **** 0.06
22340 H 77.90320005617639 20.65930649736194 78.29313940220806 H 0.0 **** 0.06
22341 C 116.15912117179525 18.539624351703708 58.08520082639879 C 0.0 **** -0.24
22342 H 116.405580632256 19.214615336163746 57.265038387417974 H 0.0 **** 0.06
22343 H 116.5359266847235 18.954271481279818 59.02037827140981 H 0.0 **** 0.06
22344 H 116.61931312746528 17.568096737754985 57.9066038011629 H 0.0 **** 0.06
22345 H 115.07781823167583 18.42421555498325 58.14734690902773 H 0.0 **** 0.06
22346 C 122.29399268541721 110.02550773980023 96.72488539501222 C 0.0 **** -0.24
22347 H 122.09142267564738 109.913021887656 97.79038238819439 H 0.0 **** 0.06
22348 H 122.7653402084953 109.11862766119395 96.34708192460289 H 0.0 **** 0.06
22349 H 122.95997081072858 110.87427214260454 96.5713290161139 H 0.0 **** 0.06
22350 H 121.35769146970594 110.19776288233557 96.19419465526087 H 0.0 **** 0.06
22351 C 78.14628113363378 0.964497279455145 71.81681786160351 C 0.0 **** -0.24
22352 H 79.19972078849312 0.7102930999079717 71.9277300675146 H 0.0 **** 0.06
22353 H 77.54020159149346 0.2513548974362152 72.3770839558236 H 0.0 **** 0.06
22354 H 77.87222013238912 0.9253964571229858 70.76294826962575 H 0.0 **** 0.06
22355 H 77.9722109625094 1.969775511312264 72.20052832878696 H 0.0 **** 0.06
22356 C 35.31795293623235 93.28158619993188 34.701919833105144 C 0.0 **** -0.24
22357 H 34.84702477358694 92.71169125904255 33.900469937681265 H 0.0 **** 0.06
22358 H 34.9733270739088 92.90598327509133 35.66571232281173 H 0.0 **** 0.06
22359 H 35.05204993931912 94.33335121623797 34.6036888285713 H 0.0 **** 0.06
22360 H 36.400802714609576 93.17280027620068 34.635636438006394 H 0.0 **** 0.06
22361 C 115.41295423332177 102.13305296467244 7.341781792954663 C 0.0 **** -0.24
22362 H 114.9713838027284 102.76740691636432 6.573779814520975 H 0.0 **** 0.06
22363 H 114.75030662179863 101.28984912921779 7.542764473707393 H 0.0 **** 0.06
22364 H 115.55124789163169 102.7119028537953 8.255160224474963 H 0.0 **** 0.06
22365 H 116.37802211503242 101.76255394089121 6.996431369516245 H 0.0 **** 0.06
22366 C 52.895455787458744 26.880170824607916 68.95508589301127 C 0.0 **** -0.24
22367 H 52.52551407809898 25.934557207810855 69.35130614128022 H 0.0 **** 0.06
22368 H 53.90559096595443 27.05853898394591 69.32399265699027 H 0.0 **** 0.06
22369 H 52.24183843326452 27.690107700653186 69.27683580263434 H 0.0 **** 0.06
22370 H 52.90909035398214 26.835502666544244 67.86619686727818 H 0.0 **** 0.06
22371 C 48.712872356062846 94.51101043290481 79.09248087861023 C 0.0 **** -0.24
22372 H 48.20060913688266 95.12089918747458 78.34863039095804 H 0.0 **** 0.06
22373 H 48.47999776608451 93.45916860048428 78.92209678262222 H 0.0 **** 0.06
22374 H 48.38202192801009 94.79925282323282 80.08987686111506 H 0.0 **** 0.06
22375 H 49.78865634295808 94.66355736286053 79.00854226546946 H 0.0 **** 0.06
22376 C 82.36061130357565 98.84417145432661 115.44185464470611 C 0.0 **** -0.24
22377 H 81.74123770370736 99.71761257227591 115.64410792467812 H 0.0 **** 0.06
22378 H 81.8077407944649 97.93947761931665 115.6953398530944 H 0.0 **** 0.06
22379 H 83.26848494963495 98.8965867562712 116.04372474000864 H 0.0 **** 0.06
22380 H 82.62673693808996 98.82437953022338 114.3844484009643 H 0.0 **** 0.06
22381 C 3.435036775283521 26.997772681459395 50.38972908910229 C 0.0 **** -0.24
22382 H 2.4411754085572284 26.707116418745805 50.04842713283874 H 0.0 **** 0.06
22383 H 3.6292135651242745 28.03105745275574 50.10108318372576 H 0.0 **** 0.06
22384 H 4.179649961873224 26.346599219826473 49.931496817808764 H 0.0 **** 0.06
22385 H 3.489374789075441 26.905745625069144 51.47389226855856 H 0.0 **** 0.06
22386 C 14.351964371093118 39.18389470829075 8.921832185447027 C 0.0 **** -0.24
22387 H 14.602393419150985 39.7659303903869 9.809625130481017 H 0.0 **** 0.06
22388 H 14.665825002186807 39.72748900756008 8.030574520578945 H 0.0 **** 0.06
22389 H 13.274846345081954 39.020321781120714 8.887232660993565 H 0.0 **** 0.06
22390 H 14.864591032288558 38.222692904787635 8.961004572796313 H 0.0 **** 0.06
22391 C 91.26228152848194 114.65819484172219 127.38395597623784 C 0.0 **** -0.24
22392 H 90.9914671389858 113.72960896077312 126.8830126547956 H 0.0 **** 0.06
22393 H 91.10575102335264 114.55053579418454 128.45719415604094 H 0.0 **** 0.06
22394 H 90.63982153110888 115.46968141112457 127.00620923546481 H 0.0 **** 0.06
22395 H 92.3109178108925 114.88402585355068 127.1901035134267 H 0.0 **** 0.06
22396 C 70.80370466721466 39.835240713096226 59.616538279817945 C 0.0 **** -0.24
22397 H 69.95147203359501 40.05016326355559 60.260864501345495 H 0.0 **** 0.06
22398 H 71.72096562482926 39.87163086967806 60.20361282330066 H 0.0 **** 0.06
22399 H 70.85195839479063 40.57619953355157 58.819034654558905 H 0.0 **** 0.06
22400 H 70.68826276761075 38.84115531205359 59.182854134965694 H 0.0 **** 0.06
22401 C 126.93592324952226 18.095743447886477 129.08476127789243 C 0.0 **** -0.24
22402 H 127.04057518624693 19.062942081205946 128.59472234128657 H 0.0 **** 0.06
22403 H 126.17833837951692 17.50606524343678 128.56808703057482 H 0.0 **** 0.06
22404 H 126.63509127673066 18.24491381364942 130.12190100474098 H 0.0 **** 0.06
22405 H 127.88936055698815 17.56881969848257 129.05569065647154 H 0.0 **** 0.06
22406 C 22.712318946162412 76.67955515285381 99.82990784889252 C 0.0 **** -0.24
22407 H 22.319577486038376 75.66304331593689 99.79284916509481 H 0.0 **** 0.06
22408 H 23.79507582975176 76.65467482434872 99.70812133988991 H 0.0 **** 0.06
22409 H 22.464652424916608 77.1298123311018 100.79066285533222 H 0.0 **** 0.06
22410 H 22.26882515373901 77.2696342214692 99.0272401234735 H 0.0 **** 0.06
22411 C 113.47774330793288 23.40883639740362 49.660366555328096 C 0.0 **** -0.24
22412 H 113.9458848438382 23.80444065509596 48.75932481845683 H 0.0 **** 0.06
22413 H 112.39448764866808 23.443965528994035 49.55233650282034 H 0.0 **** 0.06
22414 H 113.77758155737428 24.00972346457221 50.51910297751007 H 0.0 **** 0.06
22415 H 113.79506440105143 22.377153271638953 49.81160382646985 H 0.0 **** 0.06
22416 C 126.17143602877093 32.84669105012209 14.211636914172296 C 0.0 **** -0.24
22417 H 127.04076185494745 32.983702743704654 14.853799513984818 H 0.0 **** 0.06
22418 H 125.50894414141281 33.706556456556946 14.306985799109704 H 0.0 **** 0.06
22419 H 125.63951433888676 31.942384793608554 14.508396105474425 H 0.0 **** 0.06
22420 H 126.49752458830784 32.752072031607725 13.17541588813285 H 0.0 **** 0.06
22421 C 17.783012741536822 20.704749232643678 70.24746672750626 C 0.0 **** -0.24
22422 H 17.81083981319324 20.511668162547146 71.32048438714708 H 0.0 **** 0.06
22423 H 18.62933276658262 20.212907605105592 69.76733473389646 H 0.0 **** 0.06
22424 H 17.839782973302732 21.779536976177255 70.07166006165693 H 0.0 **** 0.06
22425 H 16.852773874186596 20.317092350164096 69.83315619841278 H 0.0 **** 0.06
22426 C 30.29674909419964 73.98079022306885 4.5160000165194845 C 0.0 **** -0.24
22427 H 29.936606068671722 74.8005481271461 5.138308218497002 H 0.0 **** 0.06
22428 H 31.323117733813547 73.7391239171065 4.791813850428952 H 0.0 **** 0.06
22429 H 30.26318950312583 74.27846468041429 3.4673951298169925 H 0.0 **** 0.06
22430 H 29.664429093798844 73.1061280381644 4.66566932566613 H 0.0 **** 0.06
22431 C 59.312891026144285 31.476264434972748 93.68783106823648 C 0.0 **** -0.24
22432 H 60.20479269430193 31.641080571802178 93.08312904487477 H 0.0 **** 0.06
22433 H 59.33388005604881 32.13883976078178 94.55398229942871 H 0.0 **** 0.06
22434 H 59.28818729833269 30.439387918738888 94.02433713581003 H 0.0 **** 0.06
22435 H 58.425236228905646 31.68681975446475 93.09112938393162 H 0.0 **** 0.06
22436 C 41.19667698592252 76.87033313746946 12.608255368228185 C 0.0 **** -0.24
22437 H 40.37899071346044 76.16364182004367 12.471533263917138 H 0.0 **** 0.06
22438 H 41.94174045643439 76.71975463287566 11.827046684659535 H 0.0 **** 0.06
22439 H 41.65566687170377 76.71027618385386 13.584273590754776 H 0.0 **** 0.06
22440 H 40.81095391982143 77.88843992527973 12.55157398835172 H 0.0 **** 0.06
22441 C 26.17484210960984 38.35615297222694 72.6964275587396 C 0.0 **** -0.24
22442 H 25.289731961988565 38.447159903826645 73.3258941781925 H 0.0 **** 0.06
22443 H 26.908643777077913 39.10703781813797 72.99218188851987 H 0.0 **** 0.06
22444 H 25.896786542586867 38.50942499678854 71.65368633553628 H 0.0 **** 0.06
22445 H 26.604646111141868 37.361372580557514 72.8155786620924 H 0.0 **** 0.06
22446 C 6.260683401144998 81.65812308226418 65.57514433968893 C 0.0 **** -0.24
22447 H 6.657664744373868 82.01211085506384 66.52705504542124 H 0.0 **** 0.06
22448 H 7.020064068711761 81.77168157822382 64.80122576395684 H 0.0 **** 0.06
22449 H 5.380717384117272 82.24331855277381 65.30931261866499 H 0.0 **** 0.06
22450 H 5.986128753783031 80.60769479933771 65.66504744482816 H 0.0 **** 0.06
22451 C 53.93883487350419 14.277995733072288 43.91310156257258 C 0.0 **** -0.24
22452 H 55.028155824877985 14.284554250000753 43.970087714941656 H 0.0 **** 0.06
22453 H 53.52564339087472 14.724757789148043 44.816407065638785 H 0.0 **** 0.06
22454 H 53.58666255473345 13.250590931987517 43.82165489158217 H 0.0 **** 0.06
22455 H 53.61826993319745 14.850662854588705 43.0435597956299 H 0.0 **** 0.06
22456 C 85.45928247962287 68.75767713867805 19.046869837261113 C 0.0 **** -0.24
22457 H 85.64547843890601 67.68824469756942 18.94761867069309 H 0.0 **** 0.06
22458 H 84.4589674927275 68.9161544105886 19.449764797623317 H 0.0 **** 0.06
22459 H 85.53813553140051 69.23282372662601 18.069028649335706 H 0.0 **** 0.06
22460 H 86.1967923851335 69.1922093588799 19.72259568997086 H 0.0 **** 0.06
22461 C 56.41335317561442 23.006251890470395 102.65825097636895 C 0.0 **** -0.24
22462 H 56.53915976661335 23.517579578038493 103.61361963510825 H 0.0 **** 0.06
22463 H 56.24609593511741 23.74228783922976 101.87212341298397 H 0.0 **** 0.06
22464 H 55.55651495325071 22.33487005829278 102.71640746559387 H 0.0 **** 0.06
22465 H 57.31116001569717 22.430598314493466 102.43323251921913 H 0.0 **** 0.06
22466 C 6.778734120138314 70.17003368752901 12.01745193771611 C 0.0 **** -0.24
22467 H 7.861957195937123 70.239900043424 12.116703789759423 H 0.0 **** 0.06
22468 H 6.515671158809795 70.09524420310487 10.96167357215127 H 0.0 **** 0.06
22469 H 6.316195994826252 71.05884959406151 12.44494481169069 H 0.0 **** 0.06
22470 H 6.4216985896158505 69.28453181425468 12.544734230817767 H 0.0 **** 0.06
22471 C 78.71920392487155 43.17337991221673 37.695741131145674 C 0.0 **** -0.24
22472 H 77.9670654759588 43.38832634935113 38.45466552794719 H 0.0 **** 0.06
22473 H 78.29591601727005 42.50728260573672 36.94333283498664 H 0.0 **** 0.06
22474 H 79.57943428399473 42.6942671476269 38.16319717758295 H 0.0 **** 0.06
22475 H 79.03416312065384 44.10362894177044 37.22316319481336 H 0.0 **** 0.06
22476 C 20.72544555854381 35.31259690146531 82.59008474350269 C 0.0 **** -0.24
22477 H 21.668933522430507 35.0413507118767 83.06385625165434 H 0.0 **** 0.06
22478 H 20.86529516037109 36.21160420605898 81.98958791612627 H 0.0 **** 0.06
22479 H 19.974532622977847 35.501459819500795 83.35743671354253 H 0.0 **** 0.06
22480 H 20.39267969965732 34.495339978284385 81.95015312431802 H 0.0 **** 0.06
22481 C 45.51453172955903 98.58693649752801 81.65732420846926 C 0.0 **** -0.24
22482 H 44.48319299328233 98.92816904551579 81.56148948106973 H 0.0 **** 0.06
22483 H 45.78220406509732 97.99163875556252 80.78446019923852 H 0.0 **** 0.06
22484 H 45.61291725785531 97.97912439647538 82.55673746436487 H 0.0 **** 0.06
22485 H 46.176966079488075 99.44958087527523 81.72716592407396 H 0.0 **** 0.06
22486 C 116.71541395728873 71.9460335382044 9.559273665033459 C 0.0 **** -0.24
22487 H 115.66971884221414 71.98216521264504 9.252725569953526 H 0.0 **** 0.06
22488 H 116.77429584681964 71.71359563690442 10.623035889272387 H 0.0 **** 0.06
22489 H 117.1829217228969 72.91200415327671 9.370470367402987 H 0.0 **** 0.06
22490 H 117.23370886788194 71.17401067465158 8.989308199258119 H 0.0 **** 0.06
22491 C 37.54601485605312 74.19088893391361 53.07438475485198 C 0.0 **** -0.24
22492 H 37.88562039919947 75.01995640929505 52.4543891026549 H 0.0 **** 0.06
22493 H 37.56528365764902 74.48962638081312 54.12322993392215 H 0.0 **** 0.06
22494 H 38.205929498558845 73.33491694848166 52.928922858322494 H 0.0 **** 0.06
22495 H 36.529784208728984 73.91835537546169 52.792398741341174 H 0.0 **** 0.06
22496 C 26.432547948083233 99.54513619062519 129.44892772701988 C 0.0 **** -0.24
22497 H 25.962584025222625 99.65204647219616 130.42688611360924 H 0.0 **** 0.06
22498 H 27.46153051020022 99.20716715161032 129.5757990884749 H 0.0 **** 0.06
22499 H 26.426156548465904 100.50666250286287 128.93616878114446 H 0.0 **** 0.06
22500 H 25.87957751565697 98.81378171763873 128.85911434163253 H 0.0 **** 0.06
22501 C 77.45116658401855 110.24242384641937 33.53766714275324 C 0.0 **** -0.24
22502 H 77.53981170543604 109.30155221068219 34.081177123740844 H 0.0 **** 0.06
22503 H 78.20135879751494 110.27657910205036 32.747073959903695 H 0.0 **** 0.06
22504 H 77.60857854562647 111.07491966915788 34.223961314140546 H 0.0 **** 0.06
22505 H 76.45645836362891 110.31585611946142 33.09851830232049 H 0.0 **** 0.06
22506 C 82.1617370236163 45.13374403184514 100.74885347006767 C 0.0 **** -0.24
22507 H 82.5523215516784 44.20878249095799 100.3258531337852 H 0.0 **** 0.06
22508 H 81.4427986182319 44.89881011495052 101.53466080976663 H 0.0 **** 0.06
22509 H 81.66882179703276 45.711491567606885 99.9665582126119 H 0.0 **** 0.06
22510 H 82.98091517721895 45.71668355237301 101.16830199530017 H 0.0 **** 0.06
22511 C 89.00201982281393 13.713055703643136 92.49383535505865 C 0.0 **** -0.24
22512 H 89.03007738931827 14.594943687894897 91.85265682224224 H 0.0 **** 0.06
22513 H 89.90880326303036 13.12611767085508 92.3423886759829 H 0.0 **** 0.06
22514 H 88.13024730037534 13.108950231432289 92.24356812365056 H 0.0 **** 0.06
22515 H 88.94115360977244 14.025167445275201 93.53608628237896 H 0.0 **** 0.06
22516 C 32.45499795254642 4.137406500536315 124.93444306337786 C 0.0 **** -0.24
22517 H 32.16114198432905 3.1215497242467904 124.66840508667073 H 0.0 **** 0.06
22518 H 31.74532937136064 4.543728980822777 125.65508098453503 H 0.0 **** 0.06
22519 H 32.46234357142839 4.759461807389187 124.04003507843584 H 0.0 **** 0.06
22520 H 33.451646022847285 4.122784700270927 125.37485680300547 H 0.0 **** 0.06
22521 C 104.13038665912514 31.062162989292744 34.34256748227975 C 0.0 **** -0.24
22522 H 104.86462879390264 30.555744250490307 33.71598706271226 H 0.0 **** 0.06
22523 H 104.40891891750753 30.948837577174174 35.391435795488945 H 0.0 **** 0.06
22524 H 103.14699682853684 30.6211585237225 34.178567510390934 H 0.0 **** 0.06
22525 H 104.10201678284753 32.12069030210574 34.08602218074836 H 0.0 **** 0.06
22526 C 5.513197907950769 1.8470353462604407 80.08272067949866 C 0.0 **** -0.24
22527 H 5.427841552765926 0.92956076719463 80.66465034520502 H 0.0 **** 0.06
22528 H 5.776721015771159 2.6736013331605477 80.74255376964066 H 0.0 **** 0.06
22529 H 4.560160779909609 2.058777222075406 79.59748660586791 H 0.0 **** 0.06
22530 H 6.2875189753683 1.7251494128682054 79.3242971439891 H 0.0 **** 0.06
22531 C 43.758211541795646 49.60527976746664 9.76367231192387 C 0.0 **** -0.24
22532 H 44.75961681321695 49.73085034003091 10.175896772742874 H 0.0 **** 0.06
22533 H 43.028045678398655 50.04779772076668 10.44189881561715 H 0.0 **** 0.06
22534 H 43.54575724036562 48.54330113501569 9.64232570528651 H 0.0 **** 0.06
22535 H 43.70031371471016 50.09962778744328 8.794512219407437 H 0.0 **** 0.06
22536 C 74.50227484560534 116.43482987332355 64.34859161791255 C 0.0 **** -0.24
22537 H 73.44154414006945 116.44985446452709 64.09906992432514 H 0.0 **** 0.06
22538 H 74.86979769083453 117.45777277726249 64.43201381100738 H 0.0 **** 0.06
22539 H 75.05159015077888 115.91484206528841 63.563905800885465 H 0.0 **** 0.06
22540 H 74.64548315329395 115.91768026948766 65.29657635143249 H 0.0 **** 0.06
22541 C 77.38742374538367 35.288755535355904 7.10201303183775 C 0.0 **** -0.24
22542 H 77.33558148037999 34.30755330170581 7.574795301324645 H 0.0 **** 0.06
22543 H 76.39151084679105 35.58700756977433 6.775674792017302 H 0.0 **** 0.06
22544 H 78.05428212024854 35.24142701062942 6.241110373132255 H 0.0 **** 0.06
22545 H 77.76939179397131 36.0172385828927 7.817264269390087 H 0.0 **** 0.06
22546 C 16.629361810477747 58.74900393511834 55.39385916902219 C 0.0 **** -0.24
22547 H 17.32731786701271 59.384452713322105 54.84883563127582 H 0.0 **** 0.06
22548 H 16.835295761480097 58.81566349880313 56.462047433099 H 0.0 **** 0.06
22549 H 16.745101627986458 57.71602485623447 55.06426086596818 H 0.0 **** 0.06
22550 H 15.609404274826545 59.08001665440713 55.19832483553833 H 0.0 **** 0.06
22551 C 82.18112583686434 107.28390322970601 126.77311173342767 C 0.0 **** -0.24
22552 H 82.99783383947575 106.91607020166587 126.15271966297425 H 0.0 **** 0.06
22553 H 82.5427174094623 108.09546846968992 127.4052738302099 H 0.0 **** 0.06
22554 H 81.80620837569512 106.47411504943923 127.39849516151608 H 0.0 **** 0.06
22555 H 81.3776354577636 107.65183180335686 126.1347409426933 H 0.0 **** 0.06
22556 C 117.29388368282207 59.541756756037415 60.917212616390756 C 0.0 **** -0.24
22557 H 117.60806941342727 60.44162350134863 60.38868861439997 H 0.0 **** 0.06
22558 H 118.14376838611133 58.86664361664265 61.02237329277263 H 0.0 **** 0.06
22559 H 116.5034295680295 59.046940812997434 60.35256142641998 H 0.0 **** 0.06
22560 H 116.92004208992986 59.81291272720401 61.90435918715784 H 0.0 **** 0.06
22561 C 3.3117230141852474 67.59444975529746 19.630997353532962 C 0.0 **** -0.24
22562 H 2.8413764518339235 68.22017534833233 18.87286278043308 H 0.0 **** 0.06
22563 H 3.3307129892548346 68.12823727955728 20.58180847999472 H 0.0 **** 0.06
22564 H 4.331053101410305 67.35838960828885 19.326065837082297 H 0.0 **** 0.06
22565 H 2.7427784635280545 66.67181952543761 19.74386897746848 H 0.0 **** 0.06
22566 C 25.425725207003893 12.446448224876097 64.51245638519862 C 0.0 **** -0.24
22567 H 25.120910469150687 11.633921050932244 63.85228437452933 H 0.0 **** 0.06
22568 H 24.68502738746838 13.246375714680877 64.46995526633582 H 0.0 **** 0.06
22569 H 26.39468430484837 12.830180008802564 64.1929573078001 H 0.0 **** 0.06
22570 H 25.50064386360316 12.074986438349356 65.53416073121608 H 0.0 **** 0.06
22571 C 82.74543996432368 91.61768775882325 94.3425433183204 C 0.0 **** -0.24
22572 H 83.70882583535337 91.93895841469583 93.94662628480461 H 0.0 **** 0.06
22573 H 82.76421495223025 90.54193433024346 94.51661950588596 H 0.0 **** 0.06
22574 H 81.95979326949373 91.85762431030184 93.62525867521339 H 0.0 **** 0.06
22575 H 82.54883035788805 92.13444348276562 95.28199936488392 H 0.0 **** 0.06
22576 C 105.29496401835365 7.724256750959228 47.273380615704035 C 0.0 **** -0.24
22577 H 105.12251533707683 8.538512573235721 46.5700582576659 H 0.0 **** 0.06
22578 H 106.28734942642299 7.303598679642903 47.1077288085861 H 0.0 **** 0.06
22579 H 104.54215879922289 6.949616997132125 47.1241623982551 H 0.0 **** 0.06
22580 H 105.2276950696085 8.10453972337882 48.293123853097875 H 0.0 **** 0.06
22581 C 76.22306300951527 50.802290429454246 124.55918018499572 C 0.0 **** -0.24
22582 H 75.9274917132779 51.465050134752616 123.74599715575309 H 0.0 **** 0.06
22583 H 76.19812872043866 51.35039719063046 125.50128673814513 H 0.0 **** 0.06
22584 H 77.23437479843511 50.43563526430181 124.37878058341214 H 0.0 **** 0.06
22585 H 75.53458914225615 49.958796842570905 124.61086940310801 H 0.0 **** 0.06
22586 C 112.50704591578582 62.25560747805858 57.77073725254344 C 0.0 **** -0.24
22587 H 113.38930505054509 62.685596193232556 58.244799472337746 H 0.0 **** 0.06
22588 H 111.64513230019531 62.89553087459569 57.95860532455043 H 0.0 **** 0.06
22589 H 112.3204722765073 61.26392480089075 58.18330025883989 H 0.0 **** 0.06
22590 H 112.67444143778107 62.176661049472244 56.69659495911513 H 0.0 **** 0.06
22591 C 10.024147165309717 109.68977022145373 67.01616218192486 C 0.0 **** -0.24
22592 H 9.238416475924314 108.96709365048812 66.80133621166962 H 0.0 **** 0.06
22593 H 10.996738693002115 109.19993995208519 66.95342788275833 H 0.0 **** 0.06
22594 H 9.883696529306075 110.09228291245786 68.01997027772273 H 0.0 **** 0.06
22595 H 9.979077730873176 110.50155280273631 66.28985007161836 H 0.0 **** 0.06
22596 C 10.226333735250325 32.1797913500599 15.469200167129856 C 0.0 **** -0.24
22597 H 11.276297091431083 31.890580230209338 15.42319633078337 H 0.0 **** 0.06
22598 H 9.616180380747458 31.41092674818279 14.994668180219193 H 0.0 **** 0.06
22599 H 10.08720064120794 33.1268723093759 14.949181867418261 H 0.0 **** 0.06
22600 H 9.9259499261751 32.290152639021954 16.511339525876167 H 0.0 **** 0.06
22601 C 8.305661896242043 82.40556169579494 34.818740808555916 C 0.0 **** -0.24
22602 H 8.248265260082292 82.61892184986735 35.885582632359444 H 0.0 **** 0.06
22603 H 8.572202110602007 81.35792063694049 34.67268568988591 H 0.0 **** 0.06
22604 H 9.063102498033004 83.04091666932615 34.360479723078726 H 0.0 **** 0.06
22605 H 7.338096454661013 82.60162049358604 34.35711919714524 H 0.0 **** 0.06
22606 C 51.31261712909621 60.714154856658695 68.97998431417312 C 0.0 **** -0.24
22607 H 51.140177781903304 61.430048183278075 69.78384058493987 H 0.0 **** 0.06
22608 H 50.76909245317738 59.792700045431616 69.19155343270663 H 0.0 **** 0.06
22609 H 52.37859001045062 60.49828113732974 68.90886599686115 H 0.0 **** 0.06
22610 H 50.96302458378949 61.134720982371846 68.0371165317417 H 0.0 **** 0.06
22611 C 28.103520980764813 20.438967445496075 129.89207882845648 C 0.0 **** -0.24
22612 H 27.336096859549485 20.449643990802713 130.66609026359544 H 0.0 **** 0.06
22613 H 28.904974870997876 19.76036710584893 130.18457451400752 H 0.0 **** 0.06
22614 H 28.505517137234733 21.44399723247014 129.76605638126392 H 0.0 **** 0.06
22615 H 27.666554832885822 20.101644393942564 128.95133162261914 H 0.0 **** 0.06
22616 C 79.57057897009699 26.538209807126293 118.7056459711581 C 0.0 **** -0.24
22617 H 78.51046604247497 26.79015504722372 118.73161980541659 H 0.0 **** 0.06
22618 H 79.91416379395034 26.515329712162327 117.67126042238914 H 0.0 **** 0.06
22619 H 79.72289769843792 25.560724918412348 119.16170373793864 H 0.0 **** 0.06
22620 H 80.13592139831164 27.28922680196331 119.25972360468677 H 0.0 **** 0.06
22621 C 88.95963776245263 129.9029058425913 84.7224962436114 C 0.0 **** -0.24
22622 H 89.72689674455782 130.5172987925998 84.25204710438301 H 0.0 **** 0.06
22623 H 88.53031565162168 129.22771705876195 83.98147386295338 H 0.0 **** 0.06
22624 H 88.17726824417774 130.5449739778508 85.12656169543065 H 0.0 **** 0.06
22625 H 89.40504779581184 129.32165486727925 85.52969179552389 H 0.0 **** 0.06
22626 C 32.74968401560008 107.92182437712347 44.358070108824506 C 0.0 **** -0.24
22627 H 33.31211815233357 108.85592359803891 44.36051968954977 H 0.0 **** 0.06
22628 H 32.657809761792095 107.55109771455993 45.378889056678915 H 0.0 **** 0.06
22629 H 33.273475153642465 107.18512714488726 43.74865684868947 H 0.0 **** 0.06
22630 H 31.75662280698495 108.09691162055266 43.9431057558971 H 0.0 **** 0.06
22631 C 82.83628729550199 3.5758851316766993 99.1608056758931 C 0.0 **** -0.24
22632 H 83.81203620912041 3.9581242262203205 99.46172732326556 H 0.0 **** 0.06
22633 H 82.92802775204524 2.526304176832724 98.88140099166421 H 0.0 **** 0.06
22634 H 82.46853778900855 4.148149293099266 98.30925269070431 H 0.0 **** 0.06
22635 H 82.13745165075252 3.670641450729164 99.9918805506966 H 0.0 **** 0.06
22636 C 59.25774964121746 12.846062702104131 116.31705022668865 C 0.0 **** -0.24
22637 H 58.29148568553302 13.276667732411813 116.05515574110598 H 0.0 **** 0.06
22638 H 60.05331544202457 13.430408082340449 115.85346520797032 H 0.0 **** 0.06
22639 H 59.306935298883644 11.818075248190162 115.95869703931146 H 0.0 **** 0.06
22640 H 59.38005865882734 12.85974739558895 117.39991018177255 H 0.0 **** 0.06
22641 C 51.65225156934321 110.9750327752297 130.1416602675028 C 0.0 **** -0.24
22642 H 50.67913192252732 110.5039920958854 130.28317473261674 H 0.0 **** 0.06
22643 H 52.406115756507916 110.42494788553071 130.70377662793106 H 0.0 **** 0.06
22644 H 51.611534798388675 112.00529771975252 130.49718781451827 H 0.0 **** 0.06
22645 H 51.909235215061955 110.96575272529414 129.0822803670412 H 0.0 **** 0.06
22646 C 83.21314250214378 10.25821579103929 58.98621662456112 C 0.0 **** -0.24
22647 H 83.64929806988158 10.872624334148156 59.77394877502455 H 0.0 **** 0.06
22648 H 83.42656465408363 10.707422805107583 58.01573191406156 H 0.0 **** 0.06
22649 H 82.13503305837638 10.197095873542139 59.12940100273879 H 0.0 **** 0.06
22650 H 83.64211871963822 9.25647277357443 59.02689660555319 H 0.0 **** 0.06
22651 C 53.913117528726104 37.87775938374648 39.621941496774156 C 0.0 **** -0.24
22652 H 52.9338593876365 38.153249101552575 40.01348125272932 H 0.0 **** 0.06
22653 H 54.01786612367579 38.25959265286872 38.605461461412006 H 0.0 **** 0.06
22654 H 54.00712337528515 36.79150342714995 39.61379230344528 H 0.0 **** 0.06
22655 H 54.69093095740142 38.304978862363996 40.25334956586599 H 0.0 **** 0.06
22656 C 93.81493971564475 47.56764657157805 38.36218045786708 C 0.0 **** -0.24
22657 H 93.15472893844031 48.3303938665413 37.94978411617731 H 0.0 **** 0.06
22658 H 93.64434247055038 46.62273675216022 37.846309852429926 H 0.0 **** 0.06
22659 H 93.60694595115922 47.4435294535032 39.42552615684295 H 0.0 **** 0.06
22660 H 94.85162330021922 47.87372439894449 38.2283153063365 H 0.0 **** 0.06
22661 C 36.763011148242356 46.957989829287776 108.85779604397328 C 0.0 **** -0.24
22662 H 36.40607347277336 47.95808074731461 108.61459644588152 H 0.0 **** 0.06
22663 H 36.09200245797206 46.499349947280336 109.58525144503332 H 0.0 **** 0.06
22664 H 37.76622731815229 47.022637173382826 109.27942802020019 H 0.0 **** 0.06
22665 H 36.78677525889924 46.350348204575035 107.95354698722113 H 0.0 **** 0.06
22666 C 22.027530471663766 89.81016744745465 59.24287565808578 C 0.0 **** -0.24
22667 H 22.927822796439642 90.18433506825716 58.75502443602551 H 0.0 **** 0.06
22668 H 22.166353441577513 89.83007209835667 60.32435914067793 H 0.0 **** 0.06
22669 H 21.83593650296467 88.78774997354789 58.91828100166936 H 0.0 **** 0.06
22670 H 21.180626027919544 90.44179804607259 58.972929044577484 H 0.0 **** 0.06
22671 C 42.984485112175285 53.55827694431679 35.210875743872975 C 0.0 **** -0.24
22672 H 43.72624454339244 54.233780967444545 35.636598319041326 H 0.0 **** 0.06
22673 H 41.98790283760648 53.86281740847636 35.53282205537511 H 0.0 **** 0.06
22674 H 43.18166997716792 52.54095555885465 35.55160422678355 H 0.0 **** 0.06
22675 H 43.041428575009505 53.594616453406275 34.12327778769381 H 0.0 **** 0.06
22676 C 124.75092047359999 18.684777858719343 90.39417359156094 C 0.0 **** -0.24
22677 H 124.04064102716384 18.542860970104726 89.57898083249316 H 0.0 **** 0.06
22678 H 125.11955815750281 17.71434948045942 90.72777145672816 H 0.0 **** 0.06
22679 H 124.25476456820059 19.189031651619743 91.22338399647464 H 0.0 **** 0.06
22680 H 125.5866475266217 19.29158243736741 90.04679638708481 H 0.0 **** 0.06
22681 C 95.61797125158716 29.05455776440101 44.282632776853404 C 0.0 **** -0.24
22682 H 95.38385588938024 27.99134747753834 44.322246910852755 H 0.0 **** 0.06
22683 H 95.48054026701664 29.419349689165784 43.2647806072834 H 0.0 **** 0.06
22684 H 96.65264837813731 29.210990950070055 44.5891901489515 H 0.0 **** 0.06
22685 H 94.95460161918425 29.597503920320847 44.95655393213258 H 0.0 **** 0.06
22686 C 103.56131945305393 58.875562352824915 49.864065652861285 C 0.0 **** -0.24
22687 H 103.8195448280163 59.86163902025723 50.24940692819993 H 0.0 **** 0.06
22688 H 102.49851614354642 58.69168141160489 50.02033585654354 H 0.0 **** 0.06
22689 H 104.14200709547848 58.11761462815572 50.38878797704223 H 0.0 **** 0.06
22690 H 103.78578811062904 58.832052319269266 48.79807963206204 H 0.0 **** 0.06
22691 C 25.111907881428124 38.40604476598174 129.66951089174137 C 0.0 **** -0.24
22692 H 25.60366591279592 37.870103087739814 128.8571605520265 H 0.0 **** 0.06
22693 H 25.64058561521042 38.21359762482716 130.60318451318818 H 0.0 **** 0.06
22694 H 24.081234069286268 38.06434334339626 129.758212831195 H 0.0 **** 0.06
22695 H 25.12443819542907 39.47494687515929 129.45795781063427 H 0.0 **** 0.06
22696 C 53.64674786601485 15.441553411395756 22.069617000230437 C 0.0 **** -0.24
22697 H 52.570867435927696 15.6186782981735 22.047175595798763 H 0.0 **** 0.06
22698 H 54.132992895220085 16.06240524512263 21.316409655679138 H 0.0 **** 0.06
22699 H 53.845885316942244 14.390727422718129 21.85802655128498 H 0.0 **** 0.06
22700 H 54.03633316715637 15.694016017326216 23.05584739869795 H 0.0 **** 0.06
22701 C 40.90467194338109 44.27209471673416 90.6054674077323 C 0.0 **** -0.24
22702 H 41.957333825083055 44.01648263843481 90.7272783571618 H 0.0 **** 0.06
22703 H 40.59175382694497 44.0451958333706 89.5860167462859 H 0.0 **** 0.06
22704 H 40.7645253335173 45.335361484554085 90.80100562698375 H 0.0 **** 0.06
22705 H 40.307182703324855 43.69061330465583 91.30739434767526 H 0.0 **** 0.06
22706 C 120.86849494383097 42.181131216937644 40.11355525355884 C 0.0 **** -0.24
22707 H 119.96337337808438 42.01114058093597 39.53122754796186 H 0.0 **** 0.06
22708 H 120.8852184535445 41.500568235834436 40.964743725679796 H 0.0 **** 0.06
22709 H 120.88339449360876 43.21142699113358 40.46970285924567 H 0.0 **** 0.06
22710 H 121.74261476190952 42.00098225157416 39.48643767334613 H 0.0 **** 0.06
22711 C 24.397450254472886 63.04976757185506 0.060885668424816686 C 0.0 **** -0.24
22712 H 24.617734657457248 64.11730212144585 0.07293755457419593 H 0.0 **** 0.06
22713 H 24.948405027703615 62.5737533015357 -0.7506263493337997 H 0.0 **** 0.06
22714 H 23.327518706926043 62.90213409839282 -0.0891355435657033 H 0.0 **** 0.06
22715 H 24.69574516957323 62.607002421304486 1.0111312305292302 H 0.0 **** 0.06
22716 C 41.863114833700365 42.2395789854383 35.901652533942666 C 0.0 **** -0.24
22717 H 41.29077335666176 41.57794199449256 35.25212874983488 H 0.0 **** 0.06
22718 H 41.18158082744293 42.78842039227385 36.551490954383866 H 0.0 **** 0.06
22719 H 42.43206212193763 42.94278936717035 35.293719483093724 H 0.0 **** 0.06
22720 H 42.54852502659713 41.64790344197763 36.50969321604167 H 0.0 **** 0.06
22721 C 1.028963878750801 103.23064473977401 55.50670182628484 C 0.0 **** -0.24
22722 H 0.5185701758961727 103.54988116816583 56.41548609755901 H 0.0 **** 0.06
22723 H 1.1951656636152848 102.15394324071822 55.54206171145616 H 0.0 **** 0.06
22724 H 1.9872838226307294 103.7442860774304 55.42835679139725 H 0.0 **** 0.06
22725 H 0.41365677002261236 103.47523264344515 54.64106369775594 H 0.0 **** 0.06
22726 C 85.30014957076143 88.90281054449868 42.160504303525414 C 0.0 **** -0.24
22727 H 84.23341888188264 88.68747521122187 42.2183729046925 H 0.0 **** 0.06
22728 H 85.83944442001639 88.25635824223528 42.85292105699102 H 0.0 **** 0.06
22729 H 85.47560337272141 89.94583814020561 42.423435572134096 H 0.0 **** 0.06
22730 H 85.65231095926995 88.71998573489111 41.144212496238225 H 0.0 **** 0.06
22731 C 57.8179156070737 6.580618822263457 51.39778036138975 C 0.0 **** -0.24
22732 H 58.874727206317885 6.32340159251752 51.33797295910091 H 0.0 **** 0.06
22733 H 57.705156852333104 7.536100844223743 51.910508421530665 H 0.0 **** 0.06
22734 H 57.28662043815933 5.806164630577829 51.95254762271682 H 0.0 **** 0.06
22735 H 57.40410248105485 6.656087673579812 50.392182219816874 H 0.0 **** 0.06
22736 C 33.40515048697358 84.56620291534034 20.59760793813919 C 0.0 **** -0.24
22737 H 33.35204605701304 84.61262041153232 21.685542601497474 H 0.0 **** 0.06
22738 H 34.377004780967326 84.17474244336155 20.297382377625752 H 0.0 **** 0.06
22739 H 33.27226489346489 85.56513892932672 20.184357858622292 H 0.0 **** 0.06
22740 H 32.617871833358464 83.91058688718302 20.22332528324705 H 0.0 **** 0.06
22741 C 62.17383618832096 64.10483452097094 113.13536340208911 C 0.0 **** -0.24
22742 H 63.22667386979607 64.21912456770372 113.39096074516836 H 0.0 **** 0.06
22743 H 61.68581779636206 65.0793219460279 113.15893861469915 H 0.0 **** 0.06
22744 H 61.695640672537124 63.44120214669175 113.85561236968037 H 0.0 **** 0.06
22745 H 62.0864062175706 63.678900968811035 112.1350883581395 H 0.0 **** 0.06
22746 C 31.66965522083683 43.810195970907074 92.89960252394476 C 0.0 **** -0.24
22747 H 30.959750644208526 44.62247249178896 92.74082952971386 H 0.0 **** 0.06
22748 H 31.467923698872823 43.00703078575492 92.19031373193852 H 0.0 **** 0.06
22749 H 31.567222792568316 43.43144715986453 93.91702154301495 H 0.0 **** 0.06
22750 H 32.684212973489366 44.180499195345824 92.75080875555201 H 0.0 **** 0.06
22751 C 79.56152159274582 112.13862764496874 18.82035326508288 C 0.0 **** -0.24
22752 H 79.6644717156716 112.56871323354225 17.82403547692497 H 0.0 **** 0.06
22753 H 80.50617763807182 112.2295584719579 19.35561390902342 H 0.0 **** 0.06
22754 H 79.2928994145659 111.08573013942724 18.734025728825138 H 0.0 **** 0.06
22755 H 78.78056857712681 112.66910675755214 19.365466819577584 H 0.0 **** 0.06
22756 C 78.49093330530425 41.05429585341463 114.68723026913135 C 0.0 **** -0.24
22757 H 78.90156249629754 40.2839160765093 115.34016683165076 H 0.0 **** 0.06
22758 H 79.2683109751579 41.78148675307111 114.45142344461244 H 0.0 **** 0.06
22759 H 77.66512467166237 41.55512932465652 115.19267602653913 H 0.0 **** 0.06
22760 H 78.1299625086879 40.595754295138164 113.76657550403199 H 0.0 **** 0.06
22761 C 75.04061719436207 125.25202972663692 129.97977776896107 C 0.0 **** -0.24
22762 H 74.9498716264058 125.41239173367461 131.0538493257211 H 0.0 **** 0.06
22763 H 74.23565261044864 125.7777610627042 129.46559192054025 H 0.0 **** 0.06
22764 H 74.97402907849649 124.18573948477479 129.76471362059505 H 0.0 **** 0.06
22765 H 76.0028465344825 125.6321254732079 129.63594871751093 H 0.0 **** 0.06
22766 C 130.24900291397302 27.270255948687264 88.03583539405244 C 0.0 **** -0.24
22767 H 129.60966326494597 28.113888080002056 87.77738992018884 H 0.0 **** 0.06
22768 H 130.01138119462615 26.929536411134592 89.04373152064285 H 0.0 **** 0.06
22769 H 131.29323485277055 27.57954084743136 87.99281250108017 H 0.0 **** 0.06
22770 H 130.08154659970813 26.45758993478978 87.32808623396893 H 0.0 **** 0.06
22771 C 61.78075763460134 24.61121710109461 24.04299411889636 C 0.0 **** -0.24
22772 H 60.910553823607415 25.26648847280032 24.042614214238228 H 0.0 **** 0.06
22773 H 62.21467945128062 24.583082573233554 25.043268011550197 H 0.0 **** 0.06
22774 H 62.52033774303794 24.989161614543647 23.337360604032142 H 0.0 **** 0.06
22775 H 61.4784075749851 23.60583507910863 23.748837805961102 H 0.0 **** 0.06
22776 C 47.03533911382624 10.674301899597001 92.14386114793928 C 0.0 **** -0.24
22777 H 47.42063286631878 11.653275526856419 91.85749272657796 H 0.0 **** 0.06
22778 H 46.478963057058394 10.762371479499244 93.07689592161374 H 0.0 **** 0.06
22779 H 47.866616236291776 9.98207895167192 92.27911360529944 H 0.0 **** 0.06
22780 H 46.37565814562262 10.300657047935829 91.36040786799285 H 0.0 **** 0.06
22781 C 31.27609579764045 110.69909644183437 35.603987773189516 C 0.0 **** -0.24
22782 H 31.593345967944316 110.40358902678452 36.60379482351191 H 0.0 **** 0.06
22783 H 30.57939928711165 111.53504238102632 35.67674700624426 H 0.0 **** 0.06
22784 H 30.78639086931763 109.85841064477088 35.11463327226745 H 0.0 **** 0.06
22785 H 32.14666446018472 111.00143582838186 35.02239295034346 H 0.0 **** 0.06
22786 C 72.41461415912298 85.60771663422051 109.99404528857008 C 0.0 **** -0.24
22787 H 72.96902544674067 85.95066490570747 109.12019169383052 H 0.0 **** 0.06
22788 H 72.9714329136408 84.80987038278093 110.48593626131543 H 0.0 **** 0.06
22789 H 71.44065041849038 85.23314481238751 109.68228586204077 H 0.0 **** 0.06
22790 H 72.28052843626834 86.43812547622301 110.68771500761306 H 0.0 **** 0.06
22791 C 113.26471627000574 45.33240918494158 70.77599480173393 C 0.0 **** -0.24
22792 H 112.66434700883606 44.55817578629643 71.25460310874222 H 0.0 **** 0.06
22793 H 113.74282524882294 45.94573937594822 71.54016977232754 H 0.0 **** 0.06
22794 H 112.62132017432275 45.95810736502182 70.15605382453846 H 0.0 **** 0.06
22795 H 114.02746339506969 44.86704680794858 70.15268903313496 H 0.0 **** 0.06
22796 C 54.83833732663369 10.78557368563429 107.62795255005261 C 0.0 **** -0.24
22797 H 54.95523314948001 11.672851532134246 108.2492083679507 H 0.0 **** 0.06
22798 H 55.42283497558958 10.901808872514266 106.71521361855696 H 0.0 **** 0.06
22799 H 53.786732407292675 10.657416970734516 107.37249533427973 H 0.0 **** 0.06
22800 H 55.1885487741726 9.91021736715436 108.17489287942311 H 0.0 **** 0.06
22801 C 29.363994768744845 92.31560309346945 95.26462074209192 C 0.0 **** -0.24
22802 H 28.83227387605166 93.0323513016514 95.89063542387834 H 0.0 **** 0.06
22803 H 29.85921133112093 92.84359450930909 94.44992259496172 H 0.0 **** 0.06
22804 H 28.654244692540985 91.59673663858877 94.85453007917329 H 0.0 **** 0.06
22805 H 30.1075160345099 91.79108488390534 95.86422828840375 H 0.0 **** 0.06
22806 C 76.01701905347323 107.96660898034501 54.6484426475438 C 0.0 **** -0.24
22807 H 76.31153788630556 108.2632972880535 55.65581410659597 H 0.0 **** 0.06
22808 H 75.41318972921675 108.75524900858696 54.199834236512416 H 0.0 **** 0.06
22809 H 75.4347357473535 107.0463899589271 54.69725434030954 H 0.0 **** 0.06
22810 H 76.90819518218473 107.80188626604543 54.043030399012224 H 0.0 **** 0.06
22811 C 79.6734684155472 89.88073747737425 124.1817668950449 C 0.0 **** -0.24
22812 H 79.68791662880602 89.59966118060095 125.23458397702302 H 0.0 **** 0.06
22813 H 79.5937619597059 88.98394013239366 123.56804967616654 H 0.0 **** 0.06
22814 H 80.59496880912133 90.40980441050482 123.93577551797964 H 0.0 **** 0.06
22815 H 78.81946822250448 90.5298020016059 123.99063518902064 H 0.0 **** 0.06
22816 C 70.73059218690244 54.27110517972595 114.11947648712346 C 0.0 **** -0.24
22817 H 71.75509547045655 54.50422464957532 114.40934334837648 H 0.0 **** 0.06
22818 H 70.70939661585223 53.313429539350494 113.5988637570306 H 0.0 **** 0.06
22819 H 70.35389596117355 55.05146395618938 113.45810925755738 H 0.0 **** 0.06
22820 H 70.10478091897241 54.2159883757687 115.00961737732804 H 0.0 **** 0.06
22821 C 101.73447526844548 118.67099545135338 47.10103917866391 C 0.0 **** -0.24
22822 H 102.20218034890307 117.68718111255014 47.0851424376161 H 0.0 **** 0.06
22823 H 100.7318924853106 118.60371839492493 46.679457641310535 H 0.0 **** 0.06
22824 H 102.33180662312834 119.36639883372303 46.51212678438597 H 0.0 **** 0.06
22825 H 101.67385017351211 119.02681197715755 48.129804797026395 H 0.0 **** 0.06
22826 C 127.4897782400806 106.49711289141112 91.36766704468911 C 0.0 **** -0.24
22827 H 127.49031053092281 106.28747505632009 90.29736603927698 H 0.0 **** 0.06
22828 H 126.9926826410721 107.44940364914875 91.55127184791485 H 0.0 **** 0.06
22829 H 128.51771394697633 106.54712905574176 91.7275059883556 H 0.0 **** 0.06
22830 H 126.95941412900251 105.70196981430986 91.8919044726479 H 0.0 **** 0.06
22831 C 71.65754932297057 45.95966423863237 128.36494416007022 C 0.0 **** -0.24
22832 H 72.45542000364463 45.94775674893927 129.10757264441352 H 0.0 **** 0.06
22833 H 71.00285557335516 45.10188945015827 128.52042407062967 H 0.0 **** 0.06
22834 H 72.09157680580887 45.91081040459926 127.36606431721091 H 0.0 **** 0.06
22835 H 71.08188232137854 46.879813821295755 128.46589824486787 H 0.0 **** 0.06
22836 C 45.22644309736401 20.93763181112439 24.741098674514774 C 0.0 **** -0.24
22837 H 46.055984286409114 20.41638254497863 25.218852886519272 H 0.0 **** 0.06
22838 H 45.27166337524878 21.99813837068541 24.992253065440337 H 0.0 **** 0.06
22839 H 44.28413324987616 20.51986305335066 25.095760337250738 H 0.0 **** 0.06
22840 H 45.29542401271891 20.816513679093504 23.66013822661327 H 0.0 **** 0.06
22841 C 125.58315959647152 35.82949797352657 80.16856752758895 C 0.0 **** -0.24
22842 H 124.84980687373678 36.36441299118886 80.77260164622139 H 0.0 **** 0.06
22843 H 126.35889423746565 36.52250613747594 79.84212159260014 H 0.0 **** 0.06
22844 H 125.09096672087185 35.398704660181494 79.29672880688604 H 0.0 **** 0.06
22845 H 126.03254950323799 35.03404824451178 80.76281402036754 H 0.0 **** 0.06
22846 C 97.70076921032216 124.35907280862081 23.173667601756023 C 0.0 **** -0.24
22847 H 96.95525757189915 123.61857979067275 23.46495784428609 H 0.0 **** 0.06
22848 H 97.8958158614457 125.02737563268974 24.012741283401965 H 0.0 **** 0.06
22849 H 97.32861961381249 124.93580470370937 22.32727441017714 H 0.0 **** 0.06
22850 H 98.62353312018521 123.8521300954001 22.890158581999714 H 0.0 **** 0.06
22851 C 14.667580435157106 61.32254763178659 15.827836409027725 C 0.0 **** -0.24
22852 H 14.457948998590012 61.89878030585277 16.72936515047536 H 0.0 **** 0.06
22853 H 14.639312790452465 60.25835246897665 16.06287064161353 H 0.0 **** 0.06
22854 H 15.655255291636536 61.585547712767294 15.449718994388775 H 0.0 **** 0.06
22855 H 13.916587774811717 61.548168118580605 15.071147665587262 H 0.0 **** 0.06
22856 C 61.930352137199904 6.956794359835953 14.177983445712457 C 0.0 **** -0.24
22857 H 62.84130853289854 7.498646586098744 14.433973931043656 H 0.0 **** 0.06
22858 H 61.06380227909909 7.5235829490990795 14.517681072117401 H 0.0 **** 0.06
22859 H 61.940599803765835 5.981291326455846 14.664353979440293 H 0.0 **** 0.06
22860 H 61.87909995576821 6.823389083259315 13.097089023337418 H 0.0 **** 0.06
22861 C 114.89572418588494 89.80146365811439 13.517924980989704 C 0.0 **** -0.24
22862 H 114.61858158301266 90.01302595945427 12.485169519778545 H 0.0 **** 0.06
22863 H 115.97065660081887 89.62624157509086 13.57658569778189 H 0.0 **** 0.06
22864 H 114.36277872585765 88.91521406632685 13.863430854748813 H 0.0 **** 0.06
22865 H 114.63123243308519 90.65210058290214 14.145925295101389 H 0.0 **** 0.06
22866 C 4.702796944686472 90.04153559224062 42.21062304238623 C 0.0 **** -0.24
22867 H 4.36588601110444 90.56878948461048 41.31736333821618 H 0.0 **** 0.06
22868 H 5.78596985364954 90.1295559251547 42.29753889731222 H 0.0 **** 0.06
22869 H 4.427156549470279 88.98920803328656 42.13588617984331 H 0.0 **** 0.06
22870 H 4.230490549060857 90.47909894561536 43.0900003421676 H 0.0 **** 0.06
22871 C 56.73112498040129 44.68659033263498 116.25335380423303 C 0.0 **** -0.24
22872 H 55.927038454170514 45.41639470310261 116.34820058781486 H 0.0 **** 0.06
22873 H 56.86798332493592 44.43113634271646 115.20242966783897 H 0.0 **** 0.06
22874 H 56.47376170176929 43.78856977051376 116.81595467845725 H 0.0 **** 0.06
22875 H 57.65439181697161 45.10974278386263 116.64781896630865 H 0.0 **** 0.06
22876 C 48.44769078017828 18.636004148553866 39.48039393702609 C 0.0 **** -0.24
22877 H 47.68054910351131 18.77235545679042 38.718074158049916 H 0.0 **** 0.06
22878 H 48.148921333163116 19.155181484713637 40.391419852413804 H 0.0 **** 0.06
22879 H 49.39237917867865 19.044168352576378 39.12258222143748 H 0.0 **** 0.06
22880 H 48.56597883840436 17.572856119168932 39.68980184982962 H 0.0 **** 0.06
22881 C 64.67672471356414 6.415272032059988 98.67334964340546 C 0.0 **** -0.24
22882 H 64.49742281411707 6.73929523150656 97.64840269854744 H 0.0 **** 0.06
22883 H 64.33327029218955 5.388356133459638 98.79582100538767 H 0.0 **** 0.06
22884 H 64.13354566554497 7.065349495157818 99.35952987115759 H 0.0 **** 0.06
22885 H 65.74446339782216 6.469619356000123 98.89027831986675 H 0.0 **** 0.06
22886 C 13.033305395071778 12.122983599245309 85.92410322369705 C 0.0 **** -0.24
22887 H 13.40808366784887 11.880188192757387 84.93014393622707 H 0.0 **** 0.06
22888 H 11.954289713640122 12.268258952820748 85.87997095478352 H 0.0 **** 0.06
22889 H 13.51023191271642 13.037137982701648 86.27860903365581 H 0.0 **** 0.06
22890 H 13.2623221352533 11.304974242531458 86.60813580496986 H 0.0 **** 0.06
22891 C 16.68693597807237 87.95135299199688 65.67989016036263 C 0.0 **** -0.24
22892 H 17.01624456679228 88.2283880051245 64.67805785555429 H 0.0 **** 0.06
22893 H 15.62188016928215 88.16027405193324 65.78230405432959 H 0.0 **** 0.06
22894 H 17.244124966651754 88.52862234326014 66.41756758552982 H 0.0 **** 0.06
22895 H 16.865838084442743 86.8884216816903 65.84029123599932 H 0.0 **** 0.06
22896 C 123.37667708324264 23.933771239924255 23.189748992312794 C 0.0 **** -0.24
22897 H 123.67002504757485 23.250850019118985 23.98696291657953 H 0.0 **** 0.06
22898 H 123.5123743670032 23.44455231923095 22.224376186873542 H 0.0 **** 0.06
22899 H 123.99563509898444 24.829853094570296 23.2322194699844 H 0.0 **** 0.06
22900 H 122.32990545544656 24.208673238738555 23.313972353020148 H 0.0 **** 0.06
22901 C 21.39036213019213 87.74136416721015 24.989659829690254 C 0.0 **** -0.24
22902 H 20.96671556272068 87.40056239264064 25.93385533456211 H 0.0 **** 0.06
22903 H 21.046842836649375 88.75508119789984 24.781756515118502 H 0.0 **** 0.06
22904 H 21.070350378597027 87.077348086711 24.186959656429508 H 0.0 **** 0.06
22905 H 22.478531875380185 87.73254900055065 25.05616093294941 H 0.0 **** 0.06
22906 C 26.45528398768522 74.59943968288422 50.545133896913725 C 0.0 **** -0.24
22907 H 26.118890405727427 74.9797232672022 51.509670689081915 H 0.0 **** 0.06
22908 H 27.102752606841875 73.73653347590418 50.70027487476243 H 0.0 **** 0.06
22909 H 27.006288562285363 75.3786960494956 50.019777947877685 H 0.0 **** 0.06
22910 H 25.590973576482156 74.3028914450131 49.95068361397007 H 0.0 **** 0.06
22911 C 69.18803871930618 15.817289349158216 76.43871517742419 C 0.0 **** -0.24
22912 H 70.15234598555561 16.29758021581432 76.60660706481212 H 0.0 **** 0.06
22913 H 69.23278080710386 15.223642438657635 75.52560348334572 H 0.0 **** 0.06
22914 H 68.41431073782081 16.578627315836343 76.34092986756414 H 0.0 **** 0.06
22915 H 68.95380698136533 15.168212051895352 77.2833368121461 H 0.0 **** 0.06
22916 C 65.74396947089633 38.548177642708154 71.71574715247063 C 0.0 **** -0.24
22917 H 65.92631423885382 38.41623262821776 72.78258425693062 H 0.0 **** 0.06
22918 H 64.69500607132937 38.79427018673431 71.55408189549506 H 0.0 **** 0.06
22919 H 65.987495068839 37.62554764926961 71.18979886986868 H 0.0 **** 0.06
22920 H 66.36967847495484 39.35727499005856 71.33870974601003 H 0.0 **** 0.06
22921 C 31.517332740865157 33.823914684991365 16.241464781535228 C 0.0 **** -0.24
22922 H 32.139377735077375 33.486572762278286 17.070652295056988 H 0.0 **** 0.06
22923 H 32.07171187473281 34.547352214844835 15.643286372455776 H 0.0 **** 0.06
22924 H 30.614189803862388 34.29211817592747 16.63272018179768 H 0.0 **** 0.06
22925 H 31.24533646189684 32.97091964513922 15.621577025989126 H 0.0 **** 0.06
22926 C 31.13269508573552 59.662968943432745 56.44251566426587 C 0.0 **** -0.24
22927 H 30.508182171720165 59.67424138430873 55.54941880328117 H 0.0 **** 0.06
22928 H 30.537743641390847 59.34145631593721 57.29756823485219 H 0.0 **** 0.06
22929 H 31.52265384693777 60.66420502092164 56.62608842659267 H 0.0 **** 0.06
22930 H 31.9616511441084 58.970677792160544 56.295565738360224 H 0.0 **** 0.06
22931 C 99.2847173563542 25.19120223268959 97.44859743768006 C 0.0 **** -0.24
22932 H 98.67116672465457 25.067336051756513 98.34045236439131 H 0.0 **** 0.06
22933 H 99.26611289272073 24.271028877042454 96.8640648252413 H 0.0 **** 0.06
22934 H 100.3108144540996 25.41438806106936 97.74205500009063 H 0.0 **** 0.06
22935 H 98.89214249574756 26.01118128255638 96.8472125288238 H 0.0 **** 0.06
22936 C 8.549120583460137 116.16846747100229 130.49168059312146 C 0.0 **** -0.24
22937 H 7.96644542020158 115.32793652886954 130.86735705630085 H 0.0 **** 0.06
22938 H 9.034247913977367 115.88575675648889 129.5566802332839 H 0.0 **** 0.06
22939 H 9.306878406183671 116.44196957850284 131.2271180464451 H 0.0 **** 0.06
22940 H 7.890055392866657 117.01856212236126 130.31716814874886 H 0.0 **** 0.06
22941 C 5.689391253166889 42.20595444637847 33.46995332975763 C 0.0 **** -0.24
22942 H 5.092347195241928 41.29442743485678 33.43575694466392 H 0.0 **** 0.06
22943 H 5.644765300740858 42.631384495116464 34.47218794875124 H 0.0 **** 0.06
22944 H 5.296034598981123 42.924839454340365 32.75169897432778 H 0.0 **** 0.06
22945 H 6.725033181563504 41.97126358174333 33.22020031054382 H 0.0 **** 0.06
22946 C 117.30421864084914 55.12709465971162 28.058427006662725 C 0.0 **** -0.24
22947 H 117.81141148707673 55.67868801591801 28.8499525278811 H 0.0 **** 0.06
22948 H 116.42515352195409 54.6300381873112 28.467700516879347 H 0.0 **** 0.06
22949 H 117.98304855397637 54.38132645976279 27.642880020447535 H 0.0 **** 0.06
22950 H 116.99925897657002 55.81823575236601 27.273188178888574 H 0.0 **** 0.06
22951 C 53.415964611418715 119.59072138614643 10.614873658915002 C 0.0 **** -0.24
22952 H 53.20065486311822 119.51105053995809 11.680784903478155 H 0.0 **** 0.06
22953 H 53.995444251894156 120.4953478183505 10.42816563925524 H 0.0 **** 0.06
22954 H 52.48055477208399 119.63534416780716 10.058075088317452 H 0.0 **** 0.06
22955 H 53.988199698365975 118.71994979365861 10.294832552566419 H 0.0 **** 0.06
22956 C 9.595346364441411 39.76992229919844 111.50762964950644 C 0.0 **** -0.24
22957 H 10.315796991050718 40.25207821123536 112.16826346094189 H 0.0 **** 0.06
22958 H 9.56203689489982 38.70243486503563 111.72476672411631 H 0.0 **** 0.06
22959 H 9.896585628251898 39.9212624203812 110.47088640031768 H 0.0 **** 0.06
22960 H 8.609233762571336 40.20446134455122 111.66734861712308 H 0.0 **** 0.06
22961 C 17.827341689669225 27.35824321841227 25.158290466018343 C 0.0 **** -0.24
22962 H 18.31441016019999 26.402374910110268 25.350229343569765 H 0.0 **** 0.06
22963 H 16.75679087569081 27.26495948787482 25.342720964395028 H 0.0 **** 0.06
22964 H 17.99364143695052 27.64866068551612 24.12077970625029 H 0.0 **** 0.06
22965 H 18.2461085261682 28.118621591807937 25.818543911591007 H 0.0 **** 0.06
22966 C 85.75276574827859 1.3429165865434811 68.62783712594523 C 0.0 **** -0.24
22967 H 85.31402382699795 1.6390688311255133 67.67459167615192 H 0.0 **** 0.06
22968 H 86.05845778111683 2.232594722268317 69.17976261830006 H 0.0 **** 0.06
22969 H 86.62168558941937 0.7106188983753725 68.44627337616015 H 0.0 **** 0.06
22970 H 85.01594767732524 0.7895063751933833 69.20927645161277 H 0.0 **** 0.06
22971 C 78.43771621044431 19.04865616332512 51.9217024812441 C 0.0 **** -0.24
22972 H 77.66412844712536 19.298812849333217 52.64684867661313 H 0.0 **** 0.06
22973 H 78.49761060282644 17.965823845753107 51.81265983869591 H 0.0 **** 0.06
22974 H 79.39730908717648 19.43400911257345 52.26785005492384 H 0.0 **** 0.06
22975 H 78.19277518063912 19.49822332931012 50.95924170615798 H 0.0 **** 0.06
22976 C 40.89873277628496 49.0326253543865 64.33351920941996 C 0.0 **** -0.24
22977 H 41.29757134795875 49.756088140364994 65.04454583101446 H 0.0 **** 0.06
22978 H 39.82776810910684 49.197260798384065 64.20955793916454 H 0.0 **** 0.06
22979 H 41.07083421091917 48.02361175705302 64.70789617733209 H 0.0 **** 0.06
22980 H 41.39835330168847 49.15411848101597 63.37278606200769 H 0.0 **** 0.06
22981 C 44.7818490617413 68.94753671590834 125.25806166170338 C 0.0 **** -0.24
22982 H 44.38961397406976 69.65481995418654 125.98982843410684 H 0.0 **** 0.06
22983 H 45.36918830661946 68.18457703186454 125.7691199853426 H 0.0 **** 0.06
22984 H 45.41505398782212 69.47774884713678 124.54590848258647 H 0.0 **** 0.06
22985 H 43.954042665348624 68.47624901043864 124.72783533123484 H 0.0 **** 0.06
22986 C 55.4711292155104 69.36263938720208 45.56816429688679 C 0.0 **** -0.24
22987 H 56.27177881647454 68.78997249835092 45.10054875468651 H 0.0 **** 0.06
22988 H 55.8710178348924 70.30264134501707 45.94826675003511 H 0.0 **** 0.06
22989 H 55.04656120733418 68.78747431032818 46.392394689778676 H 0.0 **** 0.06
22990 H 54.69395273131626 69.56923211798582 44.83156624472878 H 0.0 **** 0.06
22991 C 75.73310709136223 97.96398129667556 123.11992881937803 C 0.0 **** -0.24
22992 H 74.90890730103618 98.51432852210424 123.57237554465019 H 0.0 **** 0.06
22993 H 76.47032415086895 98.667245852914 122.73159200164073 H 0.0 **** 0.06
22994 H 75.35408070106243 97.34682513230726 122.30567289935968 H 0.0 **** 0.06
22995 H 76.19959154494367 97.32625534388366 123.87211459716187 H 0.0 **** 0.06
22996 C 77.51497920352075 105.27509146771655 22.794546987551314 C 0.0 **** -0.24
22997 H 78.51488446992064 105.70047288569513 22.714919598705876 H 0.0 **** 0.06
22998 H 77.48696517413666 104.56552027248102 23.62123942128062 H 0.0 **** 0.06
22999 H 77.26353801679133 104.76230178600413 21.86585351170004 H 0.0 **** 0.06
23000 H 76.79455858931858 106.0733368407849 22.974993571295727 H 0.0 **** 0.06
23001 C 85.4152903449488 33.11356546603922 115.39983557000058 C 0.0 **** -0.24
23002 H 84.92194166333336 34.08454318632005 115.33988635129792 H 0.0 **** 0.06
23003 H 84.67115064205505 32.34026671021991 115.59369292565661 H 0.0 **** 0.06
23004 H 86.1459205986563 33.12768496583533 116.20829244262109 H 0.0 **** 0.06
23005 H 85.91994356000325 32.90382515252156 114.45652033857361 H 0.0 **** 0.06
23006 C 77.84607189799576 31.828143001784973 59.63896780081333 C 0.0 **** -0.24
23007 H 78.68012565414777 31.785864714910637 60.33942290013677 H 0.0 **** 0.06
23008 H 77.30371540972018 30.883487441408818 59.662026920573624 H 0.0 **** 0.06
23009 H 78.22645160295801 32.005581034176075 58.632728501609066 H 0.0 **** 0.06
23010 H 77.17600794330168 32.63986258343393 59.92174876255541 H 0.0 **** 0.06
23011 C 66.4937626789937 73.21197667951253 0.49732013384408447 C 0.0 **** -0.24
23012 H 65.49364539103075 73.3326591922596 0.08056285134597374 H 0.0 **** 0.06
23013 H 67.03633320674561 72.45752318510631 -0.0732766381474903 H 0.0 **** 0.06
23014 H 66.41854762414582 72.8971847850674 1.5378878618064107 H 0.0 **** 0.06
23015 H 67.02635360549786 74.16155094001681 0.4421194579950338 H 0.0 **** 0.06
23016 C 130.51718656640438 60.77675974200517 36.316274602086544 C 0.0 **** -0.24
23017 H 129.93203369468029 60.74976644469061 37.235798380604294 H 0.0 **** 0.06
23018 H 131.51190242990265 61.16695889479993 36.53073070378953 H 0.0 **** 0.06
23019 H 130.0223533292004 61.42151773945167 35.59036508361515 H 0.0 **** 0.06
23020 H 130.60059880986321 59.76889965774092 35.90979716106196 H 0.0 **** 0.06
23021 C 53.68805511752328 56.627981188398266 93.81021811708632 C 0.0 **** -0.24
23022 H 54.57664666597509 55.99724057378468 93.77422031786546 H 0.0 **** 0.06
23023 H 53.41195462516512 56.925369090423374 92.79832264247904 H 0.0 **** 0.06
23024 H 53.89661352223368 57.51564183878271 94.40716485959138 H 0.0 **** 0.06
23025 H 52.86583132204194 56.07132462627612 94.26221600440732 H 0.0 **** 0.06
23026 C 84.18049954440679 6.248382908217394 40.572218035065504 C 0.0 **** -0.24
23027 H 84.73857181463674 6.705018230033087 39.755069963583566 H 0.0 **** 0.06
23028 H 84.42598773552686 5.187400729000235 40.63168996438844 H 0.0 **** 0.06
23029 H 83.11170785604006 6.365402087766366 40.39152398615707 H 0.0 **** 0.06
23030 H 84.44573077142334 6.7357105860695725 41.51058822613291 H 0.0 **** 0.06
23031 C 10.994532351587935 123.56688293348918 111.66627669842805 C 0.0 **** -0.24
23032 H 11.580406043276554 124.36993366061607 112.11347577935925 H 0.0 **** 0.06
23033 H 11.20886581306172 123.51053189399968 110.59952408426105 H 0.0 **** 0.06
23034 H 9.932845366642113 123.76705731069825 111.81339052680732 H 0.0 **** 0.06
23035 H 11.253648479290575 122.62038056553968 112.14052616790414 H 0.0 **** 0.06
23036 C 92.31190571971018 32.2579260592635 79.0899438561544 C 0.0 **** -0.24
23037 H 91.42952842522844 31.754791635703675 79.48317843575157 H 0.0 **** 0.06
23038 H 92.24802087387562 32.307650657168146 78.00344599579537 H 0.0 **** 0.06
23039 H 93.20567460152279 31.701723119628276 79.37663371064477 H 0.0 **** 0.06
23040 H 92.3666444150981 33.26712025673894 79.49892215864409 H 0.0 **** 0.06
23041 C 52.03449789585724 50.80043553063649 21.62435461500189 C 0.0 **** -0.24
23042 H 51.10533485535471 51.19649568955839 22.03352797425424 H 0.0 **** 0.06
23043 H 52.12790907014261 49.74727917322656 21.890616789888696 H 0.0 **** 0.06
23044 H 52.877171444384174 51.355350207551965 22.03605648460774 H 0.0 **** 0.06
23045 H 52.027456154793 50.902787554020506 20.539443597290898 H 0.0 **** 0.06
23046 C 47.62057001605697 98.4203018154289 70.39909799721306 C 0.0 **** -0.24
23047 H 47.59577648135883 97.58653177112043 69.69779333000054 H 0.0 **** 0.06
23048 H 48.33795929382831 98.20730429087777 71.19165723906737 H 0.0 **** 0.06
23049 H 46.62993741511716 98.55783228735399 70.8327106114761 H 0.0 **** 0.06
23050 H 47.91642607010224 99.32845369744726 69.87397246943391 H 0.0 **** 0.06
23051 C 11.862743919044448 125.36538713654483 34.324521628356905 C 0.0 **** -0.24
23052 H 11.232030911409908 125.64032001386079 33.47915929168775 H 0.0 **** 0.06
23053 H 12.633716622777257 124.66940520597245 33.9909443183019 H 0.0 **** 0.06
23054 H 11.252526913560558 124.89073040712128 35.09241265013708 H 0.0 **** 0.06
23055 H 12.331510333451348 126.25974525551464 34.73338713185075 H 0.0 **** 0.06
23056 C 110.83577742806969 114.05914645273639 96.07130385786984 C 0.0 **** -0.24
23057 H 111.38335663409086 114.28194033301465 96.9865854103705 H 0.0 **** 0.06
23058 H 110.42516018135152 114.981735435287 95.65933347833023 H 0.0 **** 0.06
23059 H 110.02325943938763 113.36692157424996 96.29346312420905 H 0.0 **** 0.06
23060 H 111.51048176078982 113.60597918448663 95.34530941231151 H 0.0 **** 0.06
23061 C 116.41302344328102 47.55742514519818 29.951183507352482 C 0.0 **** -0.24
23062 H 117.25027769368978 48.205032670704526 29.692459253703703 H 0.0 **** 0.06
23063 H 116.44279662812411 46.6606038393804 29.331387056245774 H 0.0 **** 0.06
23064 H 115.47618158055599 48.08765158454716 29.778899617089564 H 0.0 **** 0.06
23065 H 116.48347630231424 47.27515780686858 31.001852836278943 H 0.0 **** 0.06
23066 C 15.877536536139814 123.96953301839325 58.23897219553311 C 0.0 **** -0.24
23067 H 16.111420878287078 123.62874036596705 59.247035136194796 H 0.0 **** 0.06
23068 H 14.802162421404688 123.90722067718104 58.07424478890556 H 0.0 **** 0.06
23069 H 16.39321867239886 123.33983593054298 57.51377912091206 H 0.0 **** 0.06
23070 H 16.20514830303877 125.0020466493822 58.12001602057285 H 0.0 **** 0.06
23071 C 77.14953952817929 57.1330107656367 124.86932127869062 C 0.0 **** -0.24
23072 H 76.8630645708019 57.965591181036814 124.22635514293678 H 0.0 **** 0.06
23073 H 77.07923842874058 56.20039149061347 124.30880048710912 H 0.0 **** 0.06
23074 H 76.48228730937699 57.0920552253628 125.7303611154611 H 0.0 **** 0.06
23075 H 78.17557990426398 57.27507590180079 125.210870977894 H 0.0 **** 0.06
23076 C 17.762821532581086 13.648155968708522 104.6260288603742 C 0.0 **** -0.24
23077 H 17.4750342569846 12.596959703953331 104.63779148775257 H 0.0 **** 0.06
23078 H 16.885842931325783 14.26647311747189 104.82116210576777 H 0.0 **** 0.06
23079 H 18.176652361049094 13.901162278113503 103.65085132872778 H 0.0 **** 0.06
23080 H 18.51274877951056 13.827600542688884 105.39710362801962 H 0.0 **** 0.06
23081 C 108.06874809956727 23.459159631311792 119.05083533796775 C 0.0 **** -0.24
23082 H 107.5343999038586 24.243113836322472 119.58798830521239 H 0.0 **** 0.06
23083 H 107.35285371401724 22.747232818576947 118.64036378409963 H 0.0 **** 0.06
23084 H 108.74199078154138 22.943649276811634 119.73691253848959 H 0.0 **** 0.06
23085 H 108.64670378625647 23.903189549424184 118.2408673894446 H 0.0 **** 0.06
23086 C 52.19371592285178 64.70216454771946 67.061390611069 C 0.0 **** -0.24
23087 H 52.774608704292646 63.821096423795325 66.7874233780288 H 0.0 **** 0.06
23088 H 52.013414575198 65.3086550393437 66.17382811891501 H 0.0 **** 0.06
23089 H 52.74699241484093 65.28697882652244 67.79545722206078 H 0.0 **** 0.06
23090 H 51.240659294311584 64.39101100629415 67.48814576171698 H 0.0 **** 0.06
23091 C 40.402871481357664 123.87972219403417 124.39715243530793 C 0.0 **** -0.24
23092 H 41.12118942396907 123.68590669833291 123.60040067288614 H 0.0 **** 0.06
23093 H 40.707025568760244 123.3444031255983 125.29713482871358 H 0.0 **** 0.06
23094 H 39.414850373580606 123.5389309939403 124.08669124257497 H 0.0 **** 0.06
23095 H 40.3701147075717 124.94934367496336 124.60418950145933 H 0.0 **** 0.06
23096 C 6.9588141095987766 98.37335616008151 19.68691845727855 C 0.0 **** -0.24
23097 H 7.504155456038916 98.23130002926784 18.754575564023348 H 0.0 **** 0.06
23098 H 6.282068432978534 97.53328495185379 19.843941189288365 H 0.0 **** 0.06
23099 H 6.38398448349848 99.29839093538035 19.633795185722548 H 0.0 **** 0.06
23100 H 7.665498109132443 98.43132935087004 20.515510257950616 H 0.0 **** 0.06
23101 C 53.44826561006141 67.91067658396935 14.34339799693754 C 0.0 **** -0.24
23102 H 54.20707785609545 67.58682251294915 15.05556719886593 H 0.0 **** 0.06
23103 H 53.92951677395075 68.4149160610201 13.504814434303853 H 0.0 **** 0.06
23104 H 52.75983182236473 68.59802279830257 14.834148974536902 H 0.0 **** 0.06
23105 H 52.89797519043083 67.04327302674744 13.979376059055625 H 0.0 **** 0.06
23106 C 19.117311460283815 69.94238285797499 100.58967327111316 C 0.0 **** -0.24
23107 H 19.360404488567212 70.02464582822799 99.52944727831239 H 0.0 **** 0.06
23108 H 18.670138195181835 68.96719698459438 100.78415229447882 H 0.0 **** 0.06
23109 H 18.411019273727504 70.72657062483788 100.86099655563832 H 0.0 **** 0.06
23110 H 20.02614533887433 70.05184891219864 101.18034201394364 H 0.0 **** 0.06
23111 C 97.63854791428537 67.18439087590082 49.27025703016068 C 0.0 **** -0.24
23112 H 98.36686462646826 66.90987691086634 48.50723847619213 H 0.0 **** 0.06
23113 H 96.6703724422525 66.74819808880626 49.02206226693977 H 0.0 **** 0.06
23114 H 97.5485122221798 68.26987329875324 49.31347695071912 H 0.0 **** 0.06
23115 H 97.96779027017719 66.80846842853016 50.238760118800144 H 0.0 **** 0.06
23116 C 119.1887756290987 27.19678386517873 71.37208757431641 C 0.0 **** -0.24
23117 H 120.22173167655887 26.98476039045356 71.09541386378437 H 0.0 **** 0.06
23118 H 118.9991185598432 28.26524972612542 71.27847522570448 H 0.0 **** 0.06
23119 H 119.01704646834179 26.88573944276976 72.4030356756921 H 0.0 **** 0.06
23120 H 118.51622929741677 26.64874073318544 70.7112020307682 H 0.0 **** 0.06
23121 C 62.95923757115875 61.8362609146057 4.699230762652348 C 0.0 **** -0.24
23122 H 61.99937595315728 61.97318563204786 4.200968001193928 H 0.0 **** 0.06
23123 H 63.40264427291626 60.89303311242715 4.378750919840627 H 0.0 **** 0.06
23124 H 62.809169233907284 61.820197355622355 5.778648159073441 H 0.0 **** 0.06
23125 H 63.62493523482854 62.65852805451007 4.436480210357445 H 0.0 **** 0.06
23126 C 29.69104166210974 41.956019247491554 68.9689523260455 C 0.0 **** -0.24
23127 H 30.645202470682847 41.65057192665628 68.5398491436656 H 0.0 **** 0.06
23128 H 29.282968288554372 42.78657393276556 68.39225608698257 H 0.0 **** 0.06
23129 H 29.840039270396943 42.26932489348343 70.00215256858945 H 0.0 **** 0.06
23130 H 28.995441815605062 41.11731392872042 68.93917455959473 H 0.0 **** 0.06
23131 C 33.324247843009005 76.84987535537567 51.93038640439367 C 0.0 **** -0.24
23132 H 33.327563195639215 76.24768194117325 52.83925306273994 H 0.0 **** 0.06
23133 H 32.9311515051921 76.25736715237775 51.103693705088844 H 0.0 **** 0.06
23134 H 34.34195587041643 77.16477100749302 51.70018311038942 H 0.0 **** 0.06
23135 H 32.69613024897737 77.72851540109116 52.07919319284946 H 0.0 **** 0.06
23136 C 66.16543431937669 130.4256421841514 106.47135812593423 C 0.0 **** -0.24
23137 H 65.95936686459461 130.105761272482 105.4506148683699 H 0.0 **** 0.06
23138 H 66.58542757603003 129.59286635154436 107.0348752159842 H 0.0 **** 0.06
23139 H 65.23924002326247 130.75335424424242 106.94356190296477 H 0.0 **** 0.06
23140 H 66.87781020167394 131.2506576261059 106.45737224072072 H 0.0 **** 0.06
23141 C 53.88519256962029 46.57335212632563 42.14506005918014 C 0.0 **** -0.24
23142 H 54.36813882611462 46.1804551937617 41.24952308804012 H 0.0 **** 0.06
23143 H 53.98482088349978 45.8530292279151 42.956971744364694 H 0.0 **** 0.06
23144 H 52.82889176248386 46.74804110801114 41.93958534825396 H 0.0 **** 0.06
23145 H 54.360217369680285 47.51122143886789 42.43118067392169 H 0.0 **** 0.06
23146 C 75.53441201187707 68.22228500858904 127.61589703397934 C 0.0 **** -0.24
23147 H 75.8263753023719 68.95892396342026 128.3645371145595 H 0.0 **** 0.06
23148 H 74.44707118568596 68.19141966732533 127.54212873632522 H 0.0 **** 0.06
23149 H 75.90789909905521 67.24047089906426 127.908116063405 H 0.0 **** 0.06
23150 H 75.95643638135442 68.49834320140197 126.65021400850677 H 0.0 **** 0.06
23151 C 70.91126954147524 123.52841609099988 26.052213446206267 C 0.0 **** -0.24
23152 H 71.17502693916401 123.91625665685854 27.03658494575984 H 0.0 **** 0.06
23153 H 70.04803585592174 122.86826716531573 26.141804292039595 H 0.0 **** 0.06
23154 H 71.75411564301822 122.97304284080363 25.642649792944894 H 0.0 **** 0.06
23155 H 70.6665118861996 124.35929513978022 25.390233697687307 H 0.0 **** 0.06
23156 C 31.73256397693919 95.92976177705222 32.77151924002018 C 0.0 **** -0.24
23157 H 32.117232521269344 96.94732433919931 32.709029494095546 H 0.0 **** 0.06
23158 H 32.44849163931772 95.24260003561083 32.31878766071435 H 0.0 **** 0.06
23159 H 30.78242941928285 95.86727610027442 32.241051211180434 H 0.0 **** 0.06
23160 H 31.58295596509072 95.66153843694907 33.81678862434029 H 0.0 **** 0.06
23161 C 25.127904645199834 22.36858242691062 101.68983657227707 C 0.0 **** -0.24
23162 H 26.108398884348475 22.789880751702185 101.46637678406546 H 0.0 **** 0.06
23163 H 24.873645555742 21.62076706689203 100.93767099357947 H 0.0 **** 0.06
23164 H 24.38084248737013 23.161771087769182 101.68060037383525 H 0.0 **** 0.06
23165 H 25.150319576579847 21.901482415868543 102.67524141800546 H 0.0 **** 0.06
23166 C 43.89915302119152 11.527366208743587 21.055634174651487 C 0.0 **** -0.24
23167 H 43.778439947535105 11.355953082125467 22.1253623518227 H 0.0 **** 0.06
23168 H 44.770605768054935 12.159326753950921 20.885327297258215 H 0.0 **** 0.06
23169 H 43.009546658146235 12.020537254070945 20.663670761915427 H 0.0 **** 0.06
23170 H 44.03869764611434 10.571827987752442 20.54928496608281 H 0.0 **** 0.06
23171 C 106.62416807404068 38.667116373190794 69.3973378082506 C 0.0 **** -0.24
23172 H 106.4904860359556 39.5746738391521 68.80829447303847 H 0.0 **** 0.06
23173 H 107.68222843992109 38.532137708444395 69.62213215817104 H 0.0 **** 0.06
23174 H 106.260921711283 37.8093192263768 68.83062478504513 H 0.0 **** 0.06
23175 H 106.06349758492391 38.751931615996284 70.32750949778568 H 0.0 **** 0.06
23176 C 21.964247083741014 128.71723437653674 7.326648166521878 C 0.0 **** -0.24
23177 H 22.06543177406556 129.06821992300598 6.300457548551549 H 0.0 **** 0.06
23178 H 21.24841420610116 129.3459628861201 7.856465342613603 H 0.0 **** 0.06
23179 H 22.932866898333685 128.76875705280293 7.825740986431114 H 0.0 **** 0.06
23180 H 21.611243313152784 127.68601764252179 7.324959790623012 H 0.0 **** 0.06
23181 C 32.04481267102233 21.109434143026796 49.76027856184544 C 0.0 **** -0.24
23182 H 31.329084029615558 20.28844633823438 49.79269712464384 H 0.0 **** 0.06
23183 H 32.09912208287483 21.505394637022306 48.746147776476334 H 0.0 **** 0.06
23184 H 33.02739238280736 20.745613826293436 50.06178211409514 H 0.0 **** 0.06
23185 H 31.72466564357842 21.897753956963513 50.44132055929481 H 0.0 **** 0.06
23186 C 54.52811029689266 71.51776998024687 49.03278523526353 C 0.0 **** -0.24
23187 H 55.12376544743597 70.73732538975894 48.561586200066614 H 0.0 **** 0.06
23188 H 53.581889188692514 71.62429111736381 48.5011327168084 H 0.0 **** 0.06
23189 H 55.072732117313535 72.46136778558943 48.99777480186404 H 0.0 **** 0.06
23190 H 54.33350988517509 71.24883250001346 50.07172453303028 H 0.0 **** 0.06
23191 C 22.300942376653524 86.15052829429246 83.07763076879206 C 0.0 **** -0.24
23192 H 21.41226853093461 85.71741207790915 82.61754419053338 H 0.0 **** 0.06
23193 H 23.17272751187909 85.93071399967431 82.46097863779137 H 0.0 **** 0.06
23194 H 22.4397222073284 85.72357340303327 84.07074210862315 H 0.0 **** 0.06
23195 H 22.176932568913656 87.23074323226226 83.16062343435891 H 0.0 **** 0.06
23196 C 78.20428883314382 121.53140088817518 20.30702451528427 C 0.0 **** -0.24
23197 H 78.34254997433669 122.04291866468283 21.259050163996477 H 0.0 **** 0.06
23198 H 77.66480064418286 122.18347940413224 19.619663178598245 H 0.0 **** 0.06
23199 H 77.63235491781609 120.61665788691585 20.465092062662876 H 0.0 **** 0.06
23200 H 79.17744979623977 121.28254759696992 19.884292655879577 H 0.0 **** 0.06
23201 C 113.10486875658245 99.84495452861718 58.41371847078808 C 0.0 **** -0.24
23202 H 113.4936954180979 99.80774040984984 57.39620660596097 H 0.0 **** 0.06
23203 H 112.08295012285038 100.22483298111912 58.39841555080352 H 0.0 **** 0.06
23204 H 113.7284615810741 100.50404677616925 59.017196583039876 H 0.0 **** 0.06
23205 H 113.11436790430758 98.84319794733081 58.84305514334801 H 0.0 **** 0.06
23206 C 68.07419267883924 8.979839440120735 40.043441244842114 C 0.0 **** -0.24
23207 H 68.67001893156785 9.109476727175057 40.94704333188503 H 0.0 **** 0.06
23208 H 67.22118181059486 9.657986959148836 40.06945807698591 H 0.0 **** 0.06
23209 H 67.71916503674359 7.950723779340294 39.98719348857148 H 0.0 **** 0.06
23210 H 68.68685797311971 9.200773895986124 39.16927153218356 H 0.0 **** 0.06
23211 C 18.687756382218083 3.9765197511578023 39.86233669615166 C 0.0 **** -0.24
23212 H 18.507916724120093 4.515085861855756 40.793409076773514 H 0.0 **** 0.06
23213 H 17.735544063586246 3.7763450956777973 39.37038210873072 H 0.0 **** 0.06
23214 H 19.18988269090181 3.034147266132603 40.07939819675806 H 0.0 **** 0.06
23215 H 19.315307369119125 4.581308073854608 39.208083467541314 H 0.0 **** 0.06
23216 C 107.08186257776549 44.13535517973523 24.668482268885754 C 0.0 **** -0.24
23217 H 106.18302142276588 43.6360619237706 25.028908734497065 H 0.0 **** 0.06
23218 H 107.84788161416037 43.39147744360156 24.44807978802416 H 0.0 **** 0.06
23219 H 107.4485694350513 44.81948541134133 25.434881953076484 H 0.0 **** 0.06
23220 H 106.84877214392873 44.69571083240717 23.762858791307792 H 0.0 **** 0.06
23221 C 114.01052980244675 62.67216922518878 114.41397776332404 C 0.0 **** -0.24
23222 H 114.59092646920654 63.45072801356767 114.91023823753012 H 0.0 **** 0.06
23223 H 114.65050421619661 61.811853648267416 114.21839320430583 H 0.0 **** 0.06
23224 H 113.6202229543493 63.05662950060788 113.47190754033893 H 0.0 **** 0.06
23225 H 113.18255021724205 62.37161549916573 115.0555544932602 H 0.0 **** 0.06
23226 C 89.67194899034394 18.7205776585335 51.710357934178376 C 0.0 **** -0.24
23227 H 88.66878370898755 19.145714567007218 51.734471673494625 H 0.0 **** 0.06
23228 H 89.89451572557087 18.373712719970342 50.70073459189189 H 0.0 **** 0.06
23229 H 89.7270046669502 17.88146588927586 52.403125371962744 H 0.0 **** 0.06
23230 H 90.39566843685333 19.480965370125176 52.00152813216704 H 0.0 **** 0.06
23231 C 20.587415873737314 47.194568266961795 59.325253275127096 C 0.0 **** -0.24
23232 H 19.63692709040822 47.726708106660595 59.299355650087335 H 0.0 **** 0.06
23233 H 21.39202751349228 47.89882593235242 59.53922471916874 H 0.0 **** 0.06
23234 H 20.765701988224464 46.7211260176085 58.359208748414375 H 0.0 **** 0.06
23235 H 20.555006902824402 46.431613011225494 60.10322398283779 H 0.0 **** 0.06
23236 C 3.9312101512789184 84.65867825573042 70.28679815459725 C 0.0 **** -0.24
23237 H 4.475677769351652 84.22324662827111 71.1252502004537 H 0.0 **** 0.06
23238 H 4.35002768412561 85.63725912249112 70.05137544833686 H 0.0 **** 0.06
23239 H 2.8800424523897092 84.766480280591 70.55418861856307 H 0.0 **** 0.06
23240 H 4.020569615680991 84.00655104893235 69.41848460941517 H 0.0 **** 0.06
23241 C 55.943563115496346 73.12826439048365 21.238655251569696 C 0.0 **** -0.24
23242 H 54.86816613595613 73.25559433460586 21.36001361824958 H 0.0 **** 0.06
23243 H 56.427920581867525 74.10594742470107 21.24451470469313 H 0.0 **** 0.06
23244 H 56.145859339262245 72.62757625555021 20.29204705628956 H 0.0 **** 0.06
23245 H 56.3328248762861 72.52548016503775 22.059878116996316 H 0.0 **** 0.06
23246 C 6.026969355875792 49.31749334385904 58.46451265096846 C 0.0 **** -0.24
23247 H 5.895803049001756 48.30953199699945 58.85980731085628 H 0.0 **** 0.06
23248 H 5.059999158996561 49.714576424980805 58.15592858614819 H 0.0 **** 0.06
23249 H 6.698119231270425 49.285603413194394 57.60641689342964 H 0.0 **** 0.06
23250 H 6.454087027558103 49.95790971983274 59.23657020024338 H 0.0 **** 0.06
23251 C 110.83046783410856 116.29011887567054 109.67497038559148 C 0.0 **** -0.24
23252 H 111.26931737159595 117.0141731473104 110.36194418605822 H 0.0 **** 0.06
23253 H 110.78160902228477 116.72114119019147 108.6751388821246 H 0.0 **** 0.06
23254 H 109.82606585355511 116.03363916002473 110.01110467123235 H 0.0 **** 0.06
23255 H 111.44741076962673 115.3908117300252 109.6531383118563 H 0.0 **** 0.06
23256 C 34.113671454084425 21.937551120332273 92.49307564285895 C 0.0 **** -0.24
23257 H 34.99649406797076 22.239922954514384 91.92906853204367 H 0.0 **** 0.06
23258 H 34.07391280095297 20.849051799837753 92.5485195407456 H 0.0 **** 0.06
23259 H 33.21914985063671 22.309067614322828 91.99344072616553 H 0.0 **** 0.06
23260 H 34.16659578999278 22.35128982991222 93.4998287072317 H 0.0 **** 0.06
23261 C 111.13316325238328 72.00200178674366 68.65955816723518 C 0.0 **** -0.24
23262 H 110.52316368233306 71.44395995137178 67.94822815775946 H 0.0 **** 0.06
23263 H 111.9585549695523 71.37671405844911 68.99945847931976 H 0.0 **** 0.06
23264 H 110.5209370197838 72.29182088757501 69.51287190477062 H 0.0 **** 0.06
23265 H 111.52867347745446 72.89518884579235 68.1759012527712 H 0.0 **** 0.06
23266 C 52.79025135988559 44.389861429545135 122.20505300081658 C 0.0 **** -0.24
23267 H 52.72568732806758 45.18771164393314 121.46459838274322 H 0.0 **** 0.06
23268 H 53.77762902009033 44.402792522437 122.6682146318149 H 0.0 **** 0.06
23269 H 52.62845983680262 43.42816065051272 121.71725116166323 H 0.0 **** 0.06
23270 H 52.028151730390675 44.54260552999054 122.96943371816303 H 0.0 **** 0.06
23271 C 120.07058621254333 83.73429219790646 22.634858489148712 C 0.0 **** -0.24
23272 H 120.91526810459882 83.23802645086678 23.112419232967568 H 0.0 **** 0.06
23273 H 119.79115070067323 83.18867694123529 21.73278014684172 H 0.0 **** 0.06
23274 H 120.35095624152706 84.75431344735833 22.370023015834846 H 0.0 **** 0.06
23275 H 119.22596511747412 83.75741467701724 23.323021981366367 H 0.0 **** 0.06
23276 C 70.80169792911761 126.9051996304215 9.05565513360878 C 0.0 **** -0.24
23277 H 70.97437115335174 127.58053921249402 9.893955143513125 H 0.0 **** 0.06
23278 H 70.04677452585571 126.16892827136958 9.332052722908145 H 0.0 **** 0.06
23279 H 71.73218444867359 126.39626697999631 8.802817438979133 H 0.0 **** 0.06
23280 H 70.45475275178626 127.47669139140766 8.19509331173984 H 0.0 **** 0.06
23281 C 43.882696639671195 27.661552464392173 55.18127565179873 C 0.0 **** -0.24
23282 H 44.12947026896475 27.040428886336485 54.32047328059991 H 0.0 **** 0.06
23283 H 43.96141613358512 28.713187085953678 54.90353584718531 H 0.0 **** 0.06
23284 H 44.5757147639996 27.447110955404185 55.99456967370611 H 0.0 **** 0.06
23285 H 42.86420988994482 27.44638506408549 55.5054349229639 H 0.0 **** 0.06
23286 C 1.6422872165198328 123.03802173348363 73.90063416644762 C 0.0 **** -0.24
23287 H 1.6037062777170945 123.93734473655658 74.51528293995474 H 0.0 **** 0.06
23288 H 0.8888556018716258 122.32972184591019 74.24550450598126 H 0.0 **** 0.06
23289 H 2.630642604091122 122.5858976302376 73.98017575350583 H 0.0 **** 0.06
23290 H 1.4443223695221263 123.300871376374 72.8610152413859 H 0.0 **** 0.06
23291 C 94.44742589055929 63.41583686655386 77.2154196567257 C 0.0 **** -0.24
23292 H 94.0682230250633 62.8133413885125 76.39036522078365 H 0.0 **** 0.06
23293 H 95.50023949498544 63.642994405104574 77.0440209725079 H 0.0 **** 0.06
23294 H 94.34174495087231 62.862679348227985 78.14783033942939 H 0.0 **** 0.06
23295 H 93.8801458008733 64.34432046390688 77.27732246417474 H 0.0 **** 0.06
23296 C 124.9625822409559 74.15600241329926 36.070819003731714 C 0.0 **** -0.24
23297 H 125.60773565443016 73.68736071829198 36.814107317181026 H 0.0 **** 0.06
23298 H 125.0091881646585 73.5888161002029 35.14141488320237 H 0.0 **** 0.06
23299 H 125.29834446112874 75.17725780060402 35.89085057812035 H 0.0 **** 0.06
23300 H 123.93701711690869 74.16970246014648 36.43809122595434 H 0.0 **** 0.06
23301 C 105.78158503841678 98.85117036551638 112.10896186769472 C 0.0 **** -0.24
23302 H 105.79416923719857 98.35160041036788 113.0779628999226 H 0.0 **** 0.06
23303 H 105.97819551452366 99.9144575844111 112.24684619814425 H 0.0 **** 0.06
23304 H 104.80450298866201 98.71824572148307 111.64491644535852 H 0.0 **** 0.06
23305 H 106.54977778560425 98.41844902112945 111.46880285710222 H 0.0 **** 0.06
23306 C 22.47828651814669 35.62392514940936 100.11848585649017 C 0.0 **** -0.24
23307 H 22.84102917218206 35.78517551969088 101.13390280810063 H 0.0 **** 0.06
23308 H 21.496547971705894 35.1509854460742 100.1549546488464 H 0.0 **** 0.06
23309 H 23.17418802661362 34.97882017266343 99.58272182778606 H 0.0 **** 0.06
23310 H 22.401860794515642 36.58211339501827 99.60404548770009 H 0.0 **** 0.06
23311 C 36.472228915334384 8.509378863550609 89.42225560420269 C 0.0 **** -0.24
23312 H 35.456208709624185 8.390220334132806 89.04738016360808 H 0.0 **** 0.06
23313 H 36.57289001589392 7.982800608681259 90.37169817554705 H 0.0 **** 0.06
23314 H 36.68314287884856 9.568106931094974 89.56948532496494 H 0.0 **** 0.06
23315 H 37.17715486680852 8.095537933899806 88.7002420066297 H 0.0 **** 0.06
23316 C 122.20819280795718 85.94082857568588 38.264915254001096 C 0.0 **** -0.24
23317 H 122.1144370509466 85.41920258028169 37.31224234626728 H 0.0 **** 0.06
23318 H 122.68307521266959 85.28300332330907 38.99427677403162 H 0.0 **** 0.06
23319 H 121.21804358328563 86.2249093991771 38.62271425490209 H 0.0 **** 0.06
23320 H 122.81631222578372 86.83480684606977 38.131926470617 H 0.0 **** 0.06
23321 C 84.33684976974482 32.8081250855921 101.36836339545015 C 0.0 **** -0.24
23322 H 84.34136551150726 32.09240742262002 100.54602993077243 H 0.0 **** 0.06
23323 H 85.13079235268884 33.539461628375555 101.21717641453294 H 0.0 **** 0.06
23324 H 84.50114077350986 32.28096900706485 102.30855244340545 H 0.0 **** 0.06
23325 H 83.37429230426733 33.316813939136125 101.40033439687281 H 0.0 **** 0.06
23326 C 81.06645076268197 1.1664726703455983 95.9295811322097 C 0.0 **** -0.24
23327 H 80.21249926215827 1.007219240646748 96.58746228437116 H 0.0 **** 0.06
23328 H 80.92406920673838 2.0890273808092275 95.36769082946483 H 0.0 **** 0.06
23329 H 81.15262868280323 0.328879622444731 95.2383014115972 H 0.0 **** 0.06
23330 H 81.97553070451485 1.2399033071458234 96.52663144913265 H 0.0 **** 0.06
23331 C 85.27046972257061 99.17899492702861 123.48288287377673 C 0.0 **** -0.24
23332 H 84.82163689143826 98.18760633743038 123.54858106730305 H 0.0 **** 0.06
23333 H 84.63080273392757 99.9020061920041 123.9884887414857 H 0.0 **** 0.06
23334 H 85.37963951763619 99.45876533843833 122.4357014815055 H 0.0 **** 0.06
23335 H 86.25082349402132 99.16454463233359 123.96065920605113 H 0.0 **** 0.06
23336 C 124.59927249776933 16.60841038132888 17.667636843973497 C 0.0 **** -0.24
23337 H 124.54537957444393 16.446525277662545 16.591742260383427 H 0.0 **** 0.06
23338 H 125.4932324104575 17.184544525924196 17.90469495122578 H 0.0 **** 0.06
23339 H 124.64083619916869 15.644956534928667 18.177069559847638 H 0.0 **** 0.06
23340 H 123.71508617573181 17.155086599057583 17.99731577738666 H 0.0 **** 0.06
23341 C 14.888341503786293 56.252675743063634 24.66207668042324 C 0.0 **** -0.24
23342 H 14.265547041596733 56.52610393272336 23.810592958977622 H 0.0 **** 0.06
23343 H 15.663246505677847 55.55813925065651 24.335811702486808 H 0.0 **** 0.06
23344 H 14.27170595551118 55.777035802013245 25.424715989740946 H 0.0 **** 0.06
23345 H 15.351231064477815 57.147978796018776 25.0751276154362 H 0.0 **** 0.06
23346 C 38.453711099678145 71.19882575352005 81.99024051516272 C 0.0 **** -0.24
23347 H 37.82119968941484 70.34500647543877 81.74644254753358 H 0.0 **** 0.06
23348 H 37.90054843286954 71.89116443868448 82.62501503226582 H 0.0 **** 0.06
23349 H 38.75075273888274 71.7041534241364 81.07203922996112 H 0.0 **** 0.06
23350 H 39.342978929376414 70.8522714493688 82.51859117526703 H 0.0 **** 0.06
23351 C 53.359395436702755 78.90173708360773 46.28702300333555 C 0.0 **** -0.24
23352 H 53.453024199606176 78.5978300579617 45.24390713896648 H 0.0 **** 0.06
23353 H 53.66816575405315 79.94096479952222 46.391564919823196 H 0.0 **** 0.06
23354 H 53.99547065098152 78.26902943380117 46.907329306829595 H 0.0 **** 0.06
23355 H 52.32178917682238 78.79557227763182 46.604495499395156 H 0.0 **** 0.06
23356 C 129.47879234982133 69.79933448216426 45.84178709089127 C 0.0 **** -0.24
23357 H 128.59146368582768 69.3323516011668 46.26768640828266 H 0.0 **** 0.06
23358 H 130.14373655940702 70.11718973658148 46.645479047447935 H 0.0 **** 0.06
23359 H 129.18376963449856 70.66621378117921 45.249329136608154 H 0.0 **** 0.06
23360 H 129.99593180219267 69.08233715375988 45.2040543144318 H 0.0 **** 0.06
23361 C 20.4850995455144 74.33095265077552 112.8375947139039 C 0.0 **** -0.24
23362 H 21.419720591352416 74.77700230749602 112.4959388405771 H 0.0 **** 0.06
23363 H 19.7890788002141 74.26195752947079 112.00100800600775 H 0.0 **** 0.06
23364 H 20.051545813255018 74.95168224307446 113.62171103480175 H 0.0 **** 0.06
23365 H 20.681723802608758 73.33375097243997 113.23002703474073 H 0.0 **** 0.06
23366 C 62.24161434089578 84.96139887814176 120.88571453322741 C 0.0 **** -0.24
23367 H 62.23666451011755 85.94528988663382 121.35644432722466 H 0.0 **** 0.06
23368 H 62.27614992701706 84.1909576662796 121.65611190613961 H 0.0 **** 0.06
23369 H 63.115694700438524 84.87134964633563 120.24099435124735 H 0.0 **** 0.06
23370 H 61.33699843378881 84.8402368647824 120.28960270549838 H 0.0 **** 0.06
23371 C 83.36051405587637 24.669736958950978 16.076912592807503 C 0.0 **** -0.24
23372 H 83.47364169937856 24.349340966771763 15.041193510407822 H 0.0 **** 0.06
23373 H 82.30273236209842 24.81143393108446 16.299309411485694 H 0.0 **** 0.06
23374 H 83.8927564748708 25.6089126284258 16.226553890073006 H 0.0 **** 0.06
23375 H 83.77260059468063 23.908942353012634 16.739254406382628 H 0.0 **** 0.06
23376 C 95.0688341265024 65.14806554930558 51.24701295291945 C 0.0 **** -0.24
23377 H 95.41812743483649 66.16070158381669 51.044706426263275 H 0.0 **** 0.06
23378 H 94.43882059156732 65.15160153224924 52.13600218994205 H 0.0 **** 0.06
23379 H 95.92626161506712 64.49544714845845 51.4118759381262 H 0.0 **** 0.06
23380 H 94.4949359927545 64.78421881812294 50.3944556318942 H 0.0 **** 0.06
23381 C 94.6584806431834 99.70291973519939 71.70540148459797 C 0.0 **** -0.24
23382 H 93.62558397476008 100.01120318860622 71.54603332540049 H 0.0 **** 0.06
23383 H 94.90900377082649 99.80621018167729 72.76209530203734 H 0.0 **** 0.06
23384 H 95.32063105865096 100.33361509180907 71.11208397086853 H 0.0 **** 0.06
23385 H 94.77832553728665 98.66316127086694 71.40299126605821 H 0.0 **** 0.06
23386 C 65.53681585734682 66.39691709449136 61.996627238377926 C 0.0 **** -0.24
23387 H 65.09558466054239 66.41674760166627 60.99991801585463 H 0.0 **** 0.06
23388 H 65.44373186418113 65.39470451832081 62.414546814846005 H 0.0 **** 0.06
23389 H 65.01815082191672 67.1090970010515 62.63815261798422 H 0.0 **** 0.06
23390 H 66.59167791601567 66.66690377298062 61.9311688433238 H 0.0 **** 0.06
23391 C 129.48506905891006 105.68755999897927 76.08336168850684 C 0.0 **** -0.24
23392 H 129.63469976730667 106.36157984027288 75.24123684669559 H 0.0 **** 0.06
23393 H 128.43876715506175 105.38363985673693 76.12412172412122 H 0.0 **** 0.06
23394 H 129.75127247224535 106.19770858452382 77.00937716463446 H 0.0 **** 0.06
23395 H 130.11550406241994 104.8061036600144 75.9599518642763 H 0.0 **** 0.06
23396 C 86.4984119223943 124.63967813488541 17.34845050066727 C 0.0 **** -0.24
23397 H 85.93220323264708 125.31293707543387 17.99154267996329 H 0.0 **** 0.06
23398 H 87.53741704073171 124.96725591140546 17.30615790765819 H 0.0 **** 0.06
23399 H 86.07247643030198 124.65071142311601 16.345941345149868 H 0.0 **** 0.06
23400 H 86.45251895858753 123.62830556137565 17.75211349515368 H 0.0 **** 0.06
23401 C 124.329147243362 52.20242971805345 93.84814981041336 C 0.0 **** -0.24
23402 H 123.82852781667415 51.866850924596406 92.93927820310944 H 0.0 **** 0.06
23403 H 125.30524287766056 51.721667489222625 93.92269199416569 H 0.0 **** 0.06
23404 H 123.72497599163985 51.93659107556533 94.71520941037295 H 0.0 **** 0.06
23405 H 124.45755457795474 53.284500352991785 93.81227227078818 H 0.0 **** 0.06
23406 C 93.16548497046037 6.107631265988033 49.127005661874776 C 0.0 **** -0.24
23407 H 92.50407961947175 5.8644988011436965 48.29535065980055 H 0.0 **** 0.06
23408 H 93.2335645249143 7.190333228455756 49.23242434226151 H 0.0 **** 0.06
23409 H 94.15618156860953 5.696738878623819 48.93418934557377 H 0.0 **** 0.06
23410 H 92.76663980163931 5.677010036910275 50.045841553346406 H 0.0 **** 0.06
23411 C 70.02861660387315 81.86771349403176 46.20726027013177 C 0.0 **** -0.24
23412 H 69.76710651627181 80.99730310269803 45.60592952394887 H 0.0 **** 0.06
23413 H 69.31304487330563 81.97323128483805 47.02275249547364 H 0.0 **** 0.06
23414 H 70.0042093368059 82.76150296790968 45.58412616601629 H 0.0 **** 0.06
23415 H 71.03048429711805 81.7379914860241 46.61665225736823 H 0.0 **** 0.06
23416 C 103.61844417937837 123.93296909029053 47.598391521815756 C 0.0 **** -0.24
23417 H 103.94091083569931 122.90816697244489 47.781064220580404 H 0.0 **** 0.06
23418 H 103.54587414344161 124.10632109813979 46.52482497637865 H 0.0 **** 0.06
23419 H 104.34253168473963 124.62379378581475 48.03014953982573 H 0.0 **** 0.06
23420 H 102.64348441737026 124.09476836436392 48.05916150691664 H 0.0 **** 0.06
23421 C 34.66337158957694 25.36418616466588 98.16489092895003 C 0.0 **** -0.24
23422 H 34.86594359098237 25.540386297771278 97.1082483245396 H 0.0 **** 0.06
23423 H 33.64039560076321 25.663535570096684 98.39351626396024 H 0.0 **** 0.06
23424 H 35.35782393833051 25.94933632469923 98.7690869116679 H 0.0 **** 0.06
23425 H 34.7914561685225 24.305060178972155 98.38730704765518 H 0.0 **** 0.06
23426 C 114.2145790211455 110.42045598881148 29.880634376459938 C 0.0 **** -0.24
23427 H 114.88873867946343 111.25131622582357 29.668145327639735 H 0.0 **** 0.06
23428 H 113.19865273545999 110.79893361970659 29.995838385788517 H 0.0 **** 0.06
23429 H 114.52540800740807 109.9267163692921 30.801344971060928 H 0.0 **** 0.06
23430 H 114.24672478336068 109.70835761827446 29.056668375514107 H 0.0 **** 0.06
23431 C 97.18602156825756 24.82761052826595 32.44924289660332 C 0.0 **** -0.24
23432 H 96.58536175667587 24.014974371041717 32.0406994656513 H 0.0 **** 0.06
23433 H 98.20832875747959 24.746200125098127 32.07750114605304 H 0.0 **** 0.06
23434 H 97.18863481601795 24.765844719702812 33.53711401937866 H 0.0 **** 0.06
23435 H 96.76210593197993 25.782813392633273 32.14042829811197 H 0.0 **** 0.06
23436 C 105.25208540566885 27.963260002943798 62.18807385142837 C 0.0 **** -0.24
23437 H 106.20392190934834 27.834621721706526 62.702029932792385 H 0.0 **** 0.06
23438 H 105.4017350818647 28.570374940540717 61.29446656868002 H 0.0 **** 0.06
23439 H 104.54541705848774 28.462696136748832 62.85212125831805 H 0.0 **** 0.06
23440 H 104.85717748472334 26.98847611497007 61.904127551110605 H 0.0 **** 0.06
23441 C 111.686980196782 4.530992849894517 102.8286199264936 C 0.0 **** -0.24
23442 H 111.82502598876496 4.306339064579447 101.77082527465402 H 0.0 **** 0.06
23443 H 111.50395718189716 3.605504346982343 103.37496514701051 H 0.0 **** 0.06
23444 H 110.83527009987418 5.199054774767831 102.94893010100846 H 0.0 **** 0.06
23445 H 112.58509358236651 5.011324754081443 103.21732816656176 H 0.0 **** 0.06
23446 C 59.5165073254816 120.60986317680468 89.79637283560515 C 0.0 **** -0.24
23447 H 59.358353554676555 121.67497611268689 89.96817894204406 H 0.0 **** 0.06
23448 H 60.54081711266093 120.44292748434916 89.46394934803817 H 0.0 **** 0.06
23449 H 58.82370748289058 120.25929638271748 89.03183197282522 H 0.0 **** 0.06
23450 H 59.34148497698209 120.06388283299981 90.72389057801911 H 0.0 **** 0.06
23451 C 127.52617818974169 69.76228199303011 72.01871566003294 C 0.0 **** -0.24
23452 H 126.85196277901227 69.18060620476402 71.38998413282256 H 0.0 **** 0.06
23453 H 127.12936193762766 69.80769795027484 73.03274855149543 H 0.0 **** 0.06
23454 H 127.61584805874439 70.77199618910353 71.6176844361257 H 0.0 **** 0.06
23455 H 128.50823556584137 69.2893537231856 72.03333219087214 H 0.0 **** 0.06
23456 C 8.605617500195926 30.704724371575423 60.778786047130325 C 0.0 **** -0.24
23457 H 8.636403915689755 30.424342461559917 61.83183194889796 H 0.0 **** 0.06
23458 H 9.611705884578637 30.659935408766017 60.361844110019774 H 0.0 **** 0.06
23459 H 8.218633590772694 31.719843331202327 60.684991203639015 H 0.0 **** 0.06
23460 H 7.9560758668567715 30.017341273953633 60.23855044119534 H 0.0 **** 0.06
23461 C 43.56692880660802 51.71765898360651 56.23440619738767 C 0.0 **** -0.24
23462 H 43.00305171967682 50.78845917156869 56.32862896430527 H 0.0 **** 0.06
23463 H 43.54388900850503 52.05182211987625 55.19682888815237 H 0.0 **** 0.06
23464 H 44.59899794735654 51.547210577635596 56.539071653010865 H 0.0 **** 0.06
23465 H 43.120214304251505 52.479520517756725 56.87189935789797 H 0.0 **** 0.06
23466 C 29.9716905772448 61.36202570102438 111.00937410314972 C 0.0 **** -0.24
23467 H 30.64539703043784 60.725050096705715 111.5827406341806 H 0.0 **** 0.06
23468 H 30.555613172827478 62.03471621107677 110.38113183038772 H 0.0 **** 0.06
23469 H 29.355095184654303 61.94600777492661 111.69288017174054 H 0.0 **** 0.06
23470 H 29.331836719579954 60.74149791932463 110.38212871931384 H 0.0 **** 0.06
23471 C 50.78410315622368 80.9887173162664 26.6070469506312 C 0.0 **** -0.24
23472 H 51.57171710486956 81.59372253001806 26.157731429845143 H 0.0 **** 0.06
23473 H 49.96723173424172 81.63552751210692 26.92789137877142 H 0.0 **** 0.06
23474 H 51.183540610751265 80.45387653091444 27.468780394779174 H 0.0 **** 0.06
23475 H 50.41392317503204 80.27174269202636 25.87378459912898 H 0.0 **** 0.06
23476 C 93.83000554598387 99.37254860979453 52.202027593138325 C 0.0 **** -0.24
23477 H 94.75590603532162 98.85677538403252 51.947809725907405 H 0.0 **** 0.06
23478 H 93.68045540685344 99.33884326107625 53.28156185353657 H 0.0 **** 0.06
23479 H 92.99355127107191 98.88415347476507 51.70292754098591 H 0.0 **** 0.06
23480 H 93.89110453096913 100.41112964235134 51.87652515760965 H 0.0 **** 0.06
23481 C 121.73380288910688 126.96885674724533 0.04532312968157726 C 0.0 **** -0.24
23482 H 120.81831686843643 127.50592010945357 0.2955526645309021 H 0.0 **** 0.06
23483 H 121.58366955906153 126.40522632928153 -0.876358103203188 H 0.0 **** 0.06
23484 H 121.98555611157269 126.2829698008081 0.8536094823463998 H 0.0 **** 0.06
23485 H 122.54596671673676 127.6823351339861 -0.09375948234043108 H 0.0 **** 0.06
23486 C 1.3670681990713547 10.911078747421183 12.801144353186736 C 0.0 **** -0.24
23487 H 1.7699587745497638 11.907016685318588 12.618586838264719 H 0.0 **** 0.06
23488 H 1.7266548817366356 10.227182592156815 12.031294351769361 H 0.0 **** 0.06
23489 H 0.27796007211151164 10.948450933061594 12.773734711032823 H 0.0 **** 0.06
23490 H 1.6936835510767878 10.560830191064795 13.77981987519766 H 0.0 **** 0.06
23491 C 123.24209418191984 32.702948663241784 124.88692681537916 C 0.0 **** -0.24
23492 H 122.35094166793056 33.09554736284173 124.397124883401 H 0.0 **** 0.06
23493 H 123.04981536790334 31.686194479151084 125.22956840637235 H 0.0 **** 0.06
23494 H 123.49465373062478 33.333154369638976 125.73996956988006 H 0.0 **** 0.06
23495 H 124.0726386788003 32.698265093458815 124.18088546763545 H 0.0 **** 0.06
23496 C 70.77387033045093 92.53709830664076 54.96322084302335 C 0.0 **** -0.24
23497 H 69.9993398773633 92.79166872939055 55.6864413675618 H 0.0 **** 0.06
23498 H 70.34015247858363 92.5040744055448 53.96343048768662 H 0.0 **** 0.06
23499 H 71.19350357042211 91.56175561033172 55.209405798218285 H 0.0 **** 0.06
23500 H 71.5608613203411 93.29031443805809 54.99376726670235 H 0.0 **** 0.06
23501 C 1.9249925011716016 67.41384148010489 35.576633448129456 C 0.0 **** -0.24
23502 H 0.9800477093648681 67.81223303039185 35.20751426601126 H 0.0 **** 0.06
23503 H 1.7281460305316614 66.64695656699958 36.32620365901846 H 0.0 **** 0.06
23504 H 2.50883318376583 68.21834297785098 36.023403908666154 H 0.0 **** 0.06
23505 H 2.48344447956012 66.97734143446183 34.74870014472725 H 0.0 **** 0.06
23506 C 28.257428645645433 19.6466851061507 101.6099561070579 C 0.0 **** -0.24
23507 H 28.55566941483255 18.9124233530913 102.35798589601505 H 0.0 **** 0.06
23508 H 29.106836897042484 19.873773921976635 100.96486322714387 H 0.0 **** 0.06
23509 H 27.924646854459183 20.558235028705894 102.10788036969973 H 0.0 **** 0.06
23510 H 27.442192152867193 19.24322307468276 101.0092579076111 H 0.0 **** 0.06
23511 C 37.535653375443964 94.97685942299967 32.616815595962464 C 0.0 **** -0.24
23512 H 37.662025402813825 94.00977389242325 33.10372746516367 H 0.0 **** 0.06
23513 H 38.28688168874076 95.67324549794694 32.990218810384135 H 0.0 **** 0.06
23514 H 36.54067542672624 95.36551096260939 32.83311241960581 H 0.0 **** 0.06
23515 H 37.65377387958842 94.85851893375082 31.539658433992997 H 0.0 **** 0.06
23516 C 118.20771262060188 125.17712051506034 40.794220316803816 C 0.0 **** -0.24
23517 H 117.9380926169273 124.29229909991307 41.37183147504473 H 0.0 **** 0.06
23518 H 117.62266804580712 125.20272411398443 39.87473796981183 H 0.0 **** 0.06
23519 H 119.26966953079416 125.14127278403394 40.549363255397395 H 0.0 **** 0.06
23520 H 118.00081981843927 126.07127369528168 41.38236565213316 H 0.0 **** 0.06
23521 C 75.70474876335878 57.229087133450435 81.76517390229478 C 0.0 **** -0.24
23522 H 75.35176144073264 57.42060926809461 80.7522989638309 H 0.0 **** 0.06
23523 H 75.845712836793 58.176341832877654 82.28604063603677 H 0.0 **** 0.06
23524 H 76.65191879594241 56.69205493285068 81.72354737435317 H 0.0 **** 0.06
23525 H 74.96842889111421 56.62687993243725 82.2981683180747 H 0.0 **** 0.06
23526 C 115.22251458349898 127.57566668150483 25.472281159901982 C 0.0 **** -0.24
23527 H 114.26875452960233 127.05792167665163 25.365775794556015 H 0.0 **** 0.06
23528 H 115.87639536625672 127.30536340778166 24.642763488872077 H 0.0 **** 0.06
23529 H 115.6900532421651 127.28581926165356 26.413478039019097 H 0.0 **** 0.06
23530 H 115.05377352194866 128.65229979739664 25.46662148334599 H 0.0 **** 0.06
23531 C 2.8017092561267987 72.03552265344464 46.68961453123853 C 0.0 **** -0.24
23532 H 3.3575795317505595 72.9730578953232 46.68244712600398 H 0.0 **** 0.06
23533 H 2.014188827410237 72.0752647848258 45.93753703054375 H 0.0 **** 0.06
23534 H 2.358780183024294 71.88413092999295 47.67378211296801 H 0.0 **** 0.06
23535 H 3.478501326377909 71.21184652747749 46.46516290222394 H 0.0 **** 0.06
23536 C 32.429248711000014 124.02986745126657 55.834388426973135 C 0.0 **** -0.24
23537 H 32.6038697323076 123.53295705441491 54.87909363882585 H 0.0 **** 0.06
23538 H 32.58386850747809 125.10236127520574 55.71785017126268 H 0.0 **** 0.06
23539 H 33.12389442585982 123.6396329737816 56.57736472662032 H 0.0 **** 0.06
23540 H 31.405810522604156 123.84242381248328 56.15919394425822 H 0.0 **** 0.06
23541 C 71.04525745854983 117.97828983367711 28.768133430784985 C 0.0 **** -0.24
23542 H 70.00341894046358 117.67807106730119 28.88054637221495 H 0.0 **** 0.06
23543 H 71.58252558415859 117.78075251505071 29.696906040930884 H 0.0 **** 0.06
23544 H 71.09405487238882 119.04324673157049 28.539929322493606 H 0.0 **** 0.06
23545 H 71.50158358984925 117.41142870388616 27.956408470458328 H 0.0 **** 0.06
23546 C 115.19255027369893 19.82996614628621 62.81806201067599 C 0.0 **** -0.24
23547 H 115.71117614642844 19.136170741187925 62.157299160487014 H 0.0 **** 0.06
23548 H 114.56192805094419 19.27022234572857 63.50990451137477 H 0.0 **** 0.06
23549 H 114.57252191389576 20.501942504849836 62.22367060547458 H 0.0 **** 0.06
23550 H 115.9234327360014 20.411045381876534 63.380694425685874 H 0.0 **** 0.06
23551 C 6.797463520488975 89.12831334330365 55.99621113247191 C 0.0 **** -0.24
23552 H 7.064419216516967 88.11330104661712 56.2904918901977 H 0.0 **** 0.06
23553 H 7.7038439369608795 89.69632569397535 55.7882497391539 H 0.0 **** 0.06
23554 H 6.244266565486669 89.6066972404504 56.804757033941584 H 0.0 **** 0.06
23555 H 6.1750947615637415 89.09468681451088 55.10132906179095 H 0.0 **** 0.06
23556 C 93.93905704381342 87.16873163574601 129.12246732201504 C 0.0 **** -0.24
23557 H 94.2098498889552 87.63122197025409 130.07208274160337 H 0.0 **** 0.06
23558 H 92.8936178409471 87.38534131564333 128.89884780555485 H 0.0 **** 0.06
23559 H 94.08202520974282 86.09064760936145 129.1902490327388 H 0.0 **** 0.06
23560 H 94.5714345849298 87.57101948336677 128.3299531589618 H 0.0 **** 0.06
23561 C 66.25281488988682 74.4267574754411 29.106367753845753 C 0.0 **** -0.24
23562 H 65.19725171309545 74.66098680493565 29.24521833853639 H 0.0 **** 0.06
23563 H 66.62116868256552 73.88261894667768 29.976812634194715 H 0.0 **** 0.06
23564 H 66.81736417433376 75.35226194211454 28.99076893386019 H 0.0 **** 0.06
23565 H 66.37517993072468 73.81222507435245 28.215275663086736 H 0.0 **** 0.06
23566 C 125.13001640404516 12.784526800583393 16.747916629104623 C 0.0 **** -0.24
23567 H 124.82288916592816 12.435448569392747 15.762267759327983 H 0.0 **** 0.06
23568 H 126.12694931564059 13.222524915161415 16.683341162211093 H 0.0 **** 0.06
23569 H 125.14616083977504 11.945189026561849 17.442541621737234 H 0.0 **** 0.06
23570 H 124.42523663480773 13.536493041771621 17.10303312874612 H 0.0 **** 0.06
23571 C 69.67426305775314 81.43201135206974 128.11527316330665 C 0.0 **** -0.24
23572 H 70.47947226558699 81.06748862895527 128.7537751848679 H 0.0 **** 0.06
23573 H 68.81756223992204 80.76183345466553 128.19540956079393 H 0.0 **** 0.06
23574 H 70.01603826586552 81.46207288332587 127.08128021780834 H 0.0 **** 0.06
23575 H 69.38457557954086 82.43308787589783 128.43160418956498 H 0.0 **** 0.06
23576 C 14.32576313738835 58.10145602644003 84.23477821612096 C 0.0 **** -0.24
23577 H 14.841105281629837 58.600252538029565 83.41354437421126 H 0.0 **** 0.06
23578 H 15.059183894737714 57.636726196786455 84.89518472340004 H 0.0 **** 0.06
23579 H 13.660237699473697 57.336891770264415 83.83478843602462 H 0.0 **** 0.06
23580 H 13.743908714926107 58.83286941700409 84.79609397431615 H 0.0 **** 0.06
23581 C 23.474356760719218 87.73020405363945 4.1711395576785435 C 0.0 **** -0.24
23582 H 23.682816665051178 86.66064755017155 4.13740754681919 H 0.0 **** 0.06
23583 H 22.417575992712557 87.90149855652325 3.9643809675079638 H 0.0 **** 0.06
23584 H 24.079992459068592 88.24196665753507 3.423152317042195 H 0.0 **** 0.06
23585 H 23.717560717558626 88.11546623178114 5.161406372619695 H 0.0 **** 0.06
23586 C 111.16485108933725 16.93035224125674 47.32539707701998 C 0.0 **** -0.24
23587 H 111.94980987366694 17.674528366835318 47.1886012345826 H 0.0 **** 0.06
23588 H 111.50506517542533 16.168989395291817 48.02775844924801 H 0.0 **** 0.06
23589 H 110.93507616696314 16.46474342689345 46.367541488099675 H 0.0 **** 0.06
23590 H 110.27038683049625 17.41347211176725 47.71753519294867 H 0.0 **** 0.06
23591 C 122.21704516600371 16.37960650241389 103.27397854322712 C 0.0 **** -0.24
23592 H 123.3003364864206 16.285545245493932 103.35012227725773 H 0.0 **** 0.06
23593 H 121.92616793125083 16.380633343172306 102.22294337933411 H 0.0 **** 0.06
23594 H 121.89964737437643 17.312185560394013 103.74014524386095 H 0.0 **** 0.06
23595 H 121.74353704626682 15.538903984342845 103.7815264068681 H 0.0 **** 0.06
23596 C 43.42284255638117 56.978991576814835 130.02793728334228 C 0.0 **** -0.24
23597 H 44.00353992182016 57.681769130483374 130.6268920791271 H 0.0 **** 0.06
23598 H 43.995591366576036 56.69576194548489 129.14474972910082 H 0.0 **** 0.06
23599 H 42.48909111282356 57.45026626289082 129.72013878308417 H 0.0 **** 0.06
23600 H 43.20321558273861 56.09179198220333 130.6209012601627 H 0.0 **** 0.06
23601 C 20.893050931366275 130.64278122154533 91.59383765242059 C 0.0 **** -0.24
23602 H 19.997582404659255 131.10171461728137 92.01270244688047 H 0.0 **** 0.06
23603 H 21.51252937490736 131.41100867743913 91.13012486261484 H 0.0 **** 0.06
23604 H 20.605906636107477 129.906073067513 90.8427412616865 H 0.0 **** 0.06
23605 H 21.45589211846982 130.15157314754313 92.3879534682578 H 0.0 **** 0.06
23606 C 77.17564021533008 56.71752626554215 85.92737857319489 C 0.0 **** -0.24
23607 H 77.31583503390135 56.04381438935471 85.08194897762398 H 0.0 **** 0.06
23608 H 76.34416400103868 56.36381507680241 86.5382985829822 H 0.0 **** 0.06
23609 H 76.9555955790824 57.72032245322549 85.55988886214918 H 0.0 **** 0.06
23610 H 78.08485776459895 56.74143557927985 86.52736791806792 H 0.0 **** 0.06
23611 C 107.3758099253794 35.36921801852306 37.84414977781438 C 0.0 **** -0.24
23612 H 107.00170029204139 36.13320516821292 38.52489204020793 H 0.0 **** 0.06
23613 H 106.6620464439381 34.546577151496656 37.79307918563421 H 0.0 **** 0.06
23614 H 108.33388337087729 34.99592077050672 38.20781993900198 H 0.0 **** 0.06
23615 H 107.50622299110543 35.799985084043776 36.85127936754918 H 0.0 **** 0.06
23616 C 33.20543434782152 41.9553855276921 12.040717132932855 C 0.0 **** -0.24
23617 H 34.01391992744283 41.778753557963825 11.33224440194303 H 0.0 **** 0.06
23618 H 33.30874102078704 41.276595222032284 12.886903806187803 H 0.0 **** 0.06
23619 H 32.24767793631253 41.78212646384608 11.550272020130222 H 0.0 **** 0.06
23620 H 33.25143324534946 42.986258901753416 12.393007785262057 H 0.0 **** 0.06
23621 C 110.72631098738769 47.4400171170915 51.575464715983316 C 0.0 **** -0.24
23622 H 111.20974866811689 47.98123019227026 50.76106433243041 H 0.0 **** 0.06
23623 H 110.58021113468963 48.11294485009873 52.42064137864568 H 0.0 **** 0.06
23624 H 111.35547115397397 46.6043317437296 51.87971927615169 H 0.0 **** 0.06
23625 H 109.76013526911883 47.06528511226827 51.23759954470873 H 0.0 **** 0.06
23626 C 12.56315466358069 20.441476605485548 3.169297135292709 C 0.0 **** -0.24
23627 H 12.330137501574256 19.467527192924365 2.737456789775081 H 0.0 **** 0.06
23628 H 13.293538914586463 20.319140608902046 3.9685975638234368 H 0.0 **** 0.06
23629 H 11.653586394923195 20.886575704057236 3.5731087850957692 H 0.0 **** 0.06
23630 H 12.973518299805335 21.09202049725843 2.396924942589976 H 0.0 **** 0.06
23631 C 77.26839751785347 98.91882391152114 112.6647188127077 C 0.0 **** -0.24
23632 H 77.53318954308463 99.69973787704677 113.3776802703142 H 0.0 **** 0.06
23633 H 77.96523271891778 98.94170597037373 111.82577800101073 H 0.0 **** 0.06
23634 H 76.25505432141972 99.08658147559532 112.30133282361986 H 0.0 **** 0.06
23635 H 77.32293939684791 97.94689912476554 113.15502061437438 H 0.0 **** 0.06
23636 C 67.1876651259229 4.689205740541695 95.92091734801477 C 0.0 **** -0.24
23637 H 66.98642660435954 5.189118184975598 96.86820930748206 H 0.0 **** 0.06
23638 H 68.25134260633658 4.759327079774607 95.69322964788853 H 0.0 **** 0.06
23639 H 66.61370923253398 5.169920404008224 95.12839571272764 H 0.0 **** 0.06
23640 H 66.89935804642957 3.6408064163223344 95.99450627899876 H 0.0 **** 0.06
23641 C 109.59247573137145 63.112988861076104 70.64186626113326 C 0.0 **** -0.24
23642 H 109.65143490735932 63.096457291072255 71.7301557417341 H 0.0 **** 0.06
23643 H 110.4807850236013 62.642123179456064 70.22209070173363 H 0.0 **** 0.06
23644 H 109.53090080721188 64.14526200988001 70.29742883602827 H 0.0 **** 0.06
23645 H 108.70490283742663 62.569674277625836 70.31796491963745 H 0.0 **** 0.06
23646 C 84.71038137612453 28.644473042903343 101.97746691549739 C 0.0 **** -0.24
23647 H 83.89657119950093 29.106018046378637 101.41838314386715 H 0.0 **** 0.06
23648 H 85.04224802991433 27.744620271292064 101.4583320060799 H 0.0 **** 0.06
23649 H 84.36211567755745 28.381139286669395 102.9753906175959 H 0.0 **** 0.06
23650 H 85.54117833699755 29.346448263993494 102.05540742114945 H 0.0 **** 0.06
23651 C 29.958300600604446 44.27432840547871 80.7674640832949 C 0.0 **** -0.24
23652 H 29.33979366925155 45.16366186483904 80.6483187147239 H 0.0 **** 0.06
23653 H 29.410114494118062 43.52642685960612 81.34209078780455 H 0.0 **** 0.06
23654 H 30.87522295896946 44.53713457336502 81.2943888794002 H 0.0 **** 0.06
23655 H 30.205720185334002 43.87019250112647 79.78662714242768 H 0.0 **** 0.06
23656 C 67.30567948304403 129.86039510255122 61.63680422108891 C 0.0 **** -0.24
23657 H 66.94105900530579 128.88756322429256 61.967286504396526 H 0.0 **** 0.06
23658 H 67.99576796626758 130.26004931202627 62.379874788164074 H 0.0 **** 0.06
23659 H 66.46402731130078 130.5415682402144 61.5162173991699 H 0.0 **** 0.06
23660 H 67.82217034479388 129.74832372238845 60.68329612600249 H 0.0 **** 0.06
23661 C 129.80931357143996 53.888314363848735 111.5979700442791 C 0.0 **** -0.24
23662 H 130.26126531117274 54.844840607952506 111.33872200785277 H 0.0 **** 0.06
23663 H 130.59267931402226 53.17393208807289 111.85325930599463 H 0.0 **** 0.06
23664 H 129.23808963063343 53.51409887017991 110.74856941598752 H 0.0 **** 0.06
23665 H 129.14453290382787 54.02036385078753 112.45256536148773 H 0.0 **** 0.06
23666 C 17.549382456780847 102.10945680283658 77.07330348986147 C 0.0 **** -0.24
23667 H 17.57710891462949 102.85075299893248 77.87083691530785 H 0.0 **** 0.06
23668 H 18.555171366063973 101.72675828205591 76.89662851177567 H 0.0 **** 0.06
23669 H 17.171100832804996 102.57055579029115 76.1609772305882 H 0.0 **** 0.06
23670 H 16.893789098922014 101.28795833702756 77.36349675761244 H 0.0 **** 0.06
23671 C 8.873988408548371 59.722098929608606 129.2082093509957 C 0.0 **** -0.24
23672 H 8.881016279005166 60.58424803146799 128.54019581204918 H 0.0 **** 0.06
23673 H 8.147475450078502 59.88554375662709 130.00446885969643 H 0.0 **** 0.06
23674 H 9.86603611139077 59.59120300629135 129.64130879107424 H 0.0 **** 0.06
23675 H 8.602379338565356 58.82913567313099 128.64542111978062 H 0.0 **** 0.06
23676 C 40.805645652845016 109.47401068805584 64.89631050064412 C 0.0 **** -0.24
23677 H 41.13918743252833 108.79105239122771 65.67718326802427 H 0.0 **** 0.06
23678 H 40.70049063854634 108.92882355985192 63.958100550009235 H 0.0 **** 0.06
23679 H 41.53874799428448 110.27139096945811 64.77318807840437 H 0.0 **** 0.06
23680 H 39.843724250644016 109.90393171716305 65.17708735577062 H 0.0 **** 0.06
23681 C 55.90259693120139 111.1495891093243 88.95548836064256 C 0.0 **** -0.24
23682 H 54.83944402685526 111.130923933542 88.71346760704418 H 0.0 **** 0.06
23683 H 56.0925915556072 111.92897889712341 89.69340574702156 H 0.0 **** 0.06
23684 H 56.476356792697445 111.35525031120335 88.05186313009591 H 0.0 **** 0.06
23685 H 56.19904346036667 110.18246313291465 89.36235726739957 H 0.0 **** 0.06
23686 C 52.305013153329156 53.45668376917163 66.09129320871423 C 0.0 **** -0.24
23687 H 51.47344665841726 52.90849632662284 65.64813276501093 H 0.0 **** 0.06
23688 H 53.16027525052081 52.79031691986299 66.2020470759548 H 0.0 **** 0.06
23689 H 52.008902485325706 53.835286314096294 67.06981611532206 H 0.0 **** 0.06
23690 H 52.574602617818954 54.29165576696724 65.4449390281165 H 0.0 **** 0.06
23691 C 13.961222551794236 43.51780290256068 27.78489962207749 C 0.0 **** -0.24
23692 H 14.997906168161734 43.77294199281196 28.005948543512204 H 0.0 **** 0.06
23693 H 13.559279321560979 44.22619112767554 27.061151613152788 H 0.0 **** 0.06
23694 H 13.373764995661844 43.561164484389415 28.70210509033859 H 0.0 **** 0.06
23695 H 13.915220382364055 42.510133350924995 27.37205178491132 H 0.0 **** 0.06
23696 C 30.14535678893119 88.27190011625208 96.72301284605467 C 0.0 **** -0.24
23697 H 30.093819753439462 87.58656010904099 95.8760526540301 H 0.0 **** 0.06
23698 H 30.862652354361302 87.89446050026373 97.4513272282482 H 0.0 **** 0.06
23699 H 29.161933806387474 88.34921428561387 97.18667136789202 H 0.0 **** 0.06
23700 H 30.461429478679214 89.25565189556943 96.37587171441479 H 0.0 **** 0.06
23701 C 12.778102900010168 67.10473398574676 128.02324537197617 C 0.0 **** -0.24
23702 H 13.825047620119815 66.83876196069382 127.87813130365005 H 0.0 **** 0.06
23703 H 12.329027961270288 66.42811631544619 128.75111332888113 H 0.0 **** 0.06
23704 H 12.247649976248304 67.02141089995779 127.07426672501136 H 0.0 **** 0.06
23705 H 12.710547432096874 68.12924014762694 128.38951831056792 H 0.0 **** 0.06
23706 C 63.19011480452305 69.97668019493898 68.88625488181592 C 0.0 **** -0.24
23707 H 62.63662842343187 70.51334101287773 68.11514885157919 H 0.0 **** 0.06
23708 H 62.54873366399052 69.82855665407203 69.75559150950193 H 0.0 **** 0.06
23709 H 64.06577280862084 70.55676825358833 69.17448617094887 H 0.0 **** 0.06
23710 H 63.50627858573212 69.00807303927112 68.4981425918993 H 0.0 **** 0.06
23711 C 30.367728724361655 116.35884666572872 19.4313473683699 C 0.0 **** -0.24
23712 H 29.86502710545801 116.2006619324283 18.476582366093226 H 0.0 **** 0.06
23713 H 31.087828912418274 115.55851260345676 19.599622553774566 H 0.0 **** 0.06
23714 H 29.62903383669186 116.35728700873796 20.233877736000352 H 0.0 **** 0.06
23715 H 30.884875275869717 117.31770082579206 19.415837481991105 H 0.0 **** 0.06
23716 C 31.887656854213816 50.35999937975225 107.83971649599951 C 0.0 **** -0.24
23717 H 30.96144773404376 50.0924667471658 108.34806815795622 H 0.0 **** 0.06
23718 H 32.44557659048556 51.069652039534375 108.45119763102022 H 0.0 **** 0.06
23719 H 31.655030943204565 50.81449274476468 106.87633107217866 H 0.0 **** 0.06
23720 H 32.48781037325776 49.464002989718594 107.68307148226015 H 0.0 **** 0.06
23721 C 38.546178777857335 108.91846957551891 22.076205169903616 C 0.0 **** -0.24
23722 H 39.62649010977691 109.05502782679403 22.124066790160008 H 0.0 **** 0.06
23723 H 38.188015486368954 108.52325345952599 23.027860496725914 H 0.0 **** 0.06
23724 H 38.30350630042324 108.21862738497563 21.277128580477836 H 0.0 **** 0.06
23725 H 38.06704578718205 109.87764682232537 21.87809384456235 H 0.0 **** 0.06
23726 C 96.55271490982042 51.87492645889159 44.27629421828283 C 0.0 **** -0.24
23727 H 97.61548283641471 52.08368451972552 44.398686506198715 H 0.0 **** 0.06
23728 H 96.42467483957515 51.00850939386777 43.628208095329114 H 0.0 **** 0.06
23729 H 96.06293064368498 52.73936601415335 43.828457110378736 H 0.0 **** 0.06
23730 H 96.10916692098866 51.669840196710936 45.250251730893524 H 0.0 **** 0.06
23731 C 21.16258990136798 34.979902362307385 122.55988681380289 C 0.0 **** -0.24
23732 H 20.492908967858057 35.647455143848156 122.01735734958493 H 0.0 **** 0.06
23733 H 20.74646174179575 33.97192920433677 122.563886568 H 0.0 **** 0.06
23734 H 21.274069955338696 35.33163663819566 123.58582428723545 H 0.0 **** 0.06
23735 H 22.137596977450947 34.968138565150355 122.0718977467915 H 0.0 **** 0.06
23736 C 124.56885586795471 63.88503037646481 51.1879887120205 C 0.0 **** -0.24
23737 H 124.52791669353968 64.93102376546759 51.492585674035894 H 0.0 **** 0.06
23738 H 123.71975467496827 63.350019967130635 51.615122862312646 H 0.0 **** 0.06
23739 H 125.49636654458033 63.4389297265337 51.545039898597054 H 0.0 **** 0.06
23740 H 124.5295099735306 63.82190660131252 50.10075243043006 H 0.0 **** 0.06
23741 C 45.67212976349879 116.66200793594477 68.90025128625075 C 0.0 **** -0.24
23742 H 45.01126138483136 116.85050291779113 68.05425950693768 H 0.0 **** 0.06
23743 H 46.669773397338986 117.03999854868225 68.67344337056278 H 0.0 **** 0.06
23744 H 45.724235957953226 115.5896008560674 69.08842268031327 H 0.0 **** 0.06
23745 H 45.28401657474353 117.16805427353734 69.78425169939243 H 0.0 **** 0.06
23746 C 16.462421995708155 12.987636909851076 57.249302894444554 C 0.0 **** -0.24
23747 H 17.367739136023943 12.383342205582423 57.30482083354951 H 0.0 **** 0.06
23748 H 16.66653845000377 13.895788641051737 56.68037013311624 H 0.0 **** 0.06
23749 H 16.140023341584765 13.2537525683679 58.25564627482798 H 0.0 **** 0.06
23750 H 15.675898333905195 12.417677221655637 56.753978765189274 H 0.0 **** 0.06
23751 C 15.324113292504848 77.94059232365751 124.79079283823297 C 0.0 **** -0.24
23752 H 14.558335201055542 77.36925908714 124.26528378290477 H 0.0 **** 0.06
23753 H 15.41248320792377 77.57529046488378 125.81383426778696 H 0.0 **** 0.06
23754 H 15.045514856199475 78.99445312392709 124.80270124718625 H 0.0 **** 0.06
23755 H 16.279668017033742 77.82353967615131 124.27839125244904 H 0.0 **** 0.06
23756 C 25.101615532416417 130.37241985430504 98.95507287182419 C 0.0 **** -0.24
23757 H 25.33495999392011 129.4913079629556 98.35647223335557 H 0.0 **** 0.06
23758 H 24.94160830357123 130.0747359059805 99.99166414080038 H 0.0 **** 0.06
23759 H 24.198524204386672 130.84474020689595 98.5685809524728 H 0.0 **** 0.06
23760 H 25.931782321703736 131.07730799270865 98.90242950714016 H 0.0 **** 0.06
23761 C 11.621263343298779 78.84277567555617 36.99288626113329 C 0.0 **** -0.24
23762 H 11.211824492586288 78.11195541975025 36.29639578732443 H 0.0 **** 0.06
23763 H 11.703343613142465 78.39400318469418 37.98289159361579 H 0.0 **** 0.06
23764 H 10.961609631428871 79.70983313755804 37.039906106321126 H 0.0 **** 0.06
23765 H 12.60827563603749 79.15531096022221 36.65235155727174 H 0.0 **** 0.06
23766 C 109.57410562097064 97.29278734570713 66.54652158955719 C 0.0 **** -0.24
23767 H 110.4044713444309 96.84490471808203 67.09179065056408 H 0.0 **** 0.06
23768 H 109.87232105439185 98.27338107555786 66.17240517215495 H 0.0 **** 0.06
23769 H 108.71825905382283 97.402636375278 67.21316119323194 H 0.0 **** 0.06
23770 H 109.30245958087897 96.65151181406893 65.707649950826 H 0.0 **** 0.06
23771 C 108.82739392800738 34.6770835197699 29.70081046531152 C 0.0 **** -0.24
23772 H 109.68540155372881 34.24238688057516 30.214628793316706 H 0.0 **** 0.06
23773 H 108.47263164234175 35.54524075853687 30.255996183161386 H 0.0 **** 0.06
23774 H 108.03021751468623 33.936246989777445 29.637671860315805 H 0.0 **** 0.06
23775 H 109.12183092700491 34.98140712745002 28.69704934104712 H 0.0 **** 0.06
23776 C 62.4813735989038 101.70453572015936 15.185147940347179 C 0.0 **** -0.24
23777 H 61.64762384344819 101.54734937898826 15.869444125750704 H 0.0 **** 0.06
23778 H 63.221570350920175 102.35091287193018 15.65716047972785 H 0.0 **** 0.06
23779 H 62.11716652254506 102.17432568239929 14.271373854793922 H 0.0 **** 0.06
23780 H 62.93823276231322 100.74447460242664 14.942467299504585 H 0.0 **** 0.06
23781 C 61.07523075873756 116.23782837366463 69.75872567882641 C 0.0 **** -0.24
23782 H 61.08325496782851 116.31606082749539 70.84653027675351 H 0.0 **** 0.06
23783 H 61.70902303434056 115.40662573974367 69.4499571689944 H 0.0 **** 0.06
23784 H 61.45395176265113 117.16426325613861 69.32630306975283 H 0.0 **** 0.06
23785 H 60.05565592655232 116.06556577521107 69.41504969094451 H 0.0 **** 0.06
23786 C 104.50185035954337 50.78741217139475 3.8195492763251693 C 0.0 **** -0.24
23787 H 103.91157149519722 51.5222718397161 4.366590936029233 H 0.0 **** 0.06
23788 H 104.16394323402767 49.78407895459807 4.081459138583778 H 0.0 **** 0.06
23789 H 105.55290588610941 50.89825285064089 4.083838934869618 H 0.0 **** 0.06
23790 H 104.37742271794173 50.94607811385731 2.748858709139256 H 0.0 **** 0.06
23791 C 114.69968747922003 116.7043398483905 61.382157495125085 C 0.0 **** -0.24
23792 H 114.37208045528432 116.9854453493312 60.380651691225864 H 0.0 **** 0.06
23793 H 115.05202674043052 117.5898486248089 61.91073927423653 H 0.0 **** 0.06
23794 H 115.50966037826909 115.97802818730048 61.3076068304168 H 0.0 **** 0.06
23795 H 113.86559936011234 116.26274854918327 61.92576442853057 H 0.0 **** 0.06
23796 C 18.349847734772 93.44108852661235 51.61272903379535 C 0.0 **** -0.24
23797 H 18.888838798617385 93.9757658671131 52.39578990417061 H 0.0 **** 0.06
23798 H 18.89344267886328 93.53205738261995 50.67172439064291 H 0.0 **** 0.06
23799 H 17.35391434300235 93.86861119774441 51.50118774809664 H 0.0 **** 0.06
23800 H 18.265796900160204 92.38937522912335 51.88447524939966 H 0.0 **** 0.06
23801 C 112.86682580188237 2.923059353919328 94.06295839641149 C 0.0 **** -0.24
23802 H 113.7767262870975 3.5187541971827443 94.12315087770227 H 0.0 **** 0.06
23803 H 112.0143624752721 3.5306281658065615 94.36846280683281 H 0.0 **** 0.06
23804 H 112.95272266516774 2.059277415470717 94.72245364260021 H 0.0 **** 0.06
23805 H 112.72184969795676 2.583029178459327 93.03771215280412 H 0.0 **** 0.06
23806 C 21.85460639449977 92.71372655817544 115.8079714254804 C 0.0 **** -0.24
23807 H 22.91194945735154 92.94459865654761 115.6763993219822 H 0.0 **** 0.06
23808 H 21.731751736896342 91.63772653321877 115.93939160305628 H 0.0 **** 0.06
23809 H 21.29991579482018 93.0375960033665 114.92766559357658 H 0.0 **** 0.06
23810 H 21.475874560362996 93.23303388670485 116.6881904634842 H 0.0 **** 0.06
23811 C 53.252385593362845 1.346277492763079 34.965447398204844 C 0.0 **** -0.24
23812 H 53.61459506578919 0.33226566356358944 35.13196083390355 H 0.0 **** 0.06
23813 H 52.275820603044636 1.3080159634570236 34.48269554709857 H 0.0 **** 0.06
23814 H 53.95369616681174 1.8827967663706886 34.326516253090915 H 0.0 **** 0.06
23815 H 53.165165467693384 1.8623766748642083 35.92151734847792 H 0.0 **** 0.06
23816 C 114.74405682055993 69.43963108429352 21.031904581210256 C 0.0 **** -0.24
23817 H 115.43424634921152 69.76506575986437 21.809909160761066 H 0.0 **** 0.06
23818 H 113.82962692332887 69.06422233296962 21.49087591304189 H 0.0 **** 0.06
23819 H 115.20817782697657 68.64700906958888 20.44452520231613 H 0.0 **** 0.06
23820 H 114.5060781699425 70.28149018119448 20.38139177100254 H 0.0 **** 0.06
23821 C 101.26419524432596 39.75527053267734 50.82514632956375 C 0.0 **** -0.24
23822 H 101.36834287187301 39.89252437327815 51.90146604377412 H 0.0 **** 0.06
23823 H 100.81713217815427 40.64719146650856 50.38724099848085 H 0.0 **** 0.06
23824 H 100.62381032959424 38.89400383661888 50.62995305719721 H 0.0 **** 0.06
23825 H 102.24570163668518 39.58451416606482 50.384306375913496 H 0.0 **** 0.06
23826 C 48.12895536182327 25.117004336450066 57.804836212922964 C 0.0 **** -0.24
23827 H 47.72704090863948 25.100529960514024 58.818527442138674 H 0.0 **** 0.06
23828 H 47.7237683099774 25.975190182404987 57.26767698341507 H 0.0 **** 0.06
23829 H 47.84931398607654 24.19974205831946 57.287987100115245 H 0.0 **** 0.06
23830 H 49.215635426847314 25.195173839199043 57.84692506304397 H 0.0 **** 0.06
23831 C 74.55082727803877 130.70986573616 113.62878527548536 C 0.0 **** -0.24
23832 H 75.11347466375402 129.86304225650224 113.23439023703592 H 0.0 **** 0.06
23833 H 75.24391572815897 131.49096264547725 113.9423016640928 H 0.0 **** 0.06
23834 H 73.95755252339116 130.38501726977645 114.48272082983807 H 0.0 **** 0.06
23835 H 73.89044974460346 131.09841339313206 112.85337266653805 H 0.0 **** 0.06
23836 C 89.27994899996604 78.80631152916158 75.60981986134868 C 0.0 **** -0.24
23837 H 88.51856725443169 79.58527098271819 75.66053011700131 H 0.0 **** 0.06
23838 H 90.23771275760691 79.21539683520228 75.93348070267984 H 0.0 **** 0.06
23839 H 89.36499337997853 78.44816349349283 74.58458143810981 H 0.0 **** 0.06
23840 H 88.99757233087614 77.98081551715914 76.26200321917764 H 0.0 **** 0.06
23841 C 55.453195129570986 40.89574405485607 10.81117915925239 C 0.0 **** -0.24
23842 H 55.12805791281636 41.93322291956943 10.740229813213375 H 0.0 **** 0.06
23843 H 55.269883653590625 40.390782414353225 9.862482082864233 H 0.0 **** 0.06
23844 H 54.896386443500546 40.39424063464858 11.602647332024048 H 0.0 **** 0.06
23845 H 56.518271743331866 40.86302024618331 11.039565677665962 H 0.0 **** 0.06
23846 C 21.380013212478815 0.2378996706179919 25.898987262661763 C 0.0 **** -0.24
23847 H 21.067489899210884 0.598333934555626 26.879330478423768 H 0.0 **** 0.06
23848 H 20.512915673585994 0.17533408385747862 25.242329961041094 H 0.0 **** 0.06
23849 H 21.83092217254319 -0.7487127814737846 26.00244938614921 H 0.0 **** 0.06
23850 H 22.1098829912699 0.9278226736171291 25.475196233048536 H 0.0 **** 0.06
23851 C 45.29610123936118 79.5024852378632 44.080248964766184 C 0.0 **** -0.24
23852 H 44.61717344499158 80.2834789135637 44.423210218207714 H 0.0 **** 0.06
23853 H 45.971424344273316 79.22759567411855 44.88991917565278 H 0.0 **** 0.06
23854 H 45.8745709237366 79.87086450002931 43.2329379107305 H 0.0 **** 0.06
23855 H 44.719623040892316 78.62904711254981 43.77437605738817 H 0.0 **** 0.06
23856 C 81.4769038877242 35.76354679570253 24.911342793435495 C 0.0 **** -0.24
23857 H 82.45819990905855 36.08394193070621 25.26158921363458 H 0.0 **** 0.06
23858 H 80.7748476929091 35.77068796930516 25.744418725210608 H 0.0 **** 0.06
23859 H 81.54856550661151 34.75539310855181 24.503450389763657 H 0.0 **** 0.06
23860 H 81.12886464022952 36.44629396218876 24.135390778302394 H 0.0 **** 0.06
23861 C 12.339517556233488 67.6437626206847 13.150536879242424 C 0.0 **** -0.24
23862 H 11.447227474425603 67.77988716837493 13.762268873854111 H 0.0 **** 0.06
23863 H 13.210432794733492 67.5368475125207 13.797836131838693 H 0.0 **** 0.06
23864 H 12.471015735397515 68.51102089865789 12.503642941635945 H 0.0 **** 0.06
23865 H 12.227408926818953 66.74811233720662 12.53957886892536 H 0.0 **** 0.06
23866 C 69.42129902772723 72.23205796487673 104.09150091126662 C 0.0 **** -0.24
23867 H 69.61425448356653 73.02063872670229 104.8179786978223 H 0.0 **** 0.06
23868 H 69.83158472687829 72.52180141317123 103.12347254417112 H 0.0 **** 0.06
23869 H 68.34576539950311 72.07816289320348 103.99917409908093 H 0.0 **** 0.06
23870 H 69.89245257830154 71.30813810252982 104.4247122672606 H 0.0 **** 0.06
23871 C 0.9493195612208751 37.20972278609847 8.372788012834391 C 0.0 **** -0.24
23872 H 0.22856057327956592 37.99296328504377 8.604339705400108 H 0.0 **** 0.06
23873 H 1.4177282350189273 37.418942756058755 7.411141102949429 H 0.0 **** 0.06
23874 H 0.43866101303251526 36.24861049459946 8.326838072403064 H 0.0 **** 0.06
23875 H 1.7130571345181522 37.17867745437846 9.150375063144821 H 0.0 **** 0.06
23876 C 94.37265953138274 64.7179962869312 44.19002175787679 C 0.0 **** -0.24
23877 H 95.27606994968 64.24763687392519 44.57779371269663 H 0.0 **** 0.06
23878 H 93.99007105905957 64.13390640023732 43.35192114459463 H 0.0 **** 0.06
23879 H 94.60490169132271 65.72774708531932 43.85418954675632 H 0.0 **** 0.06
23880 H 93.61850591078257 64.7604608782417 44.97753283168447 H 0.0 **** 0.06
23881 C 126.15105577235533 13.86302179829159 72.13890598383145 C 0.0 **** -0.24
23882 H 126.14317935095369 13.154912234093562 72.96686504979075 H 0.0 **** 0.06
23883 H 127.17343303673306 13.99989122160472 71.78791893519403 H 0.0 **** 0.06
23884 H 125.75143311108286 14.81954701577719 72.47598418752088 H 0.0 **** 0.06
23885 H 125.5352253726968 13.47867867480408 71.3266463730636 H 0.0 **** 0.06
23886 C 111.83542275029373 31.81358413205446 19.64481268199853 C 0.0 **** -0.24
23887 H 111.58649662778154 31.543681178790507 18.618489314953166 H 0.0 **** 0.06
23888 H 111.09714196149747 32.521538550437995 20.02395591960112 H 0.0 **** 0.06
23889 H 112.82440028005936 32.27070989107055 19.670715072573017 H 0.0 **** 0.06
23890 H 111.83231630677079 30.91830904818832 20.266544410696298 H 0.0 **** 0.06
23891 C 82.00419905728131 40.1982872361516 18.247799824554683 C 0.0 **** -0.24
23892 H 81.63612093540983 41.19920157156983 18.471633290327674 H 0.0 **** 0.06
23893 H 82.3247554574998 39.714686390365095 19.171373519762398 H 0.0 **** 0.06
23894 H 82.8487063085416 40.26711144871924 17.561661912597422 H 0.0 **** 0.06
23895 H 81.20783870324534 39.612760413730314 17.78802595148705 H 0.0 **** 0.06
23896 C 46.61038725060379 126.92349971145465 42.68786026347768 C 0.0 **** -0.24
23897 H 46.65681530962078 126.93783957555979 43.77626194045771 H 0.0 **** 0.06
23898 H 45.74574180411145 127.49790785641137 42.35402189692279 H 0.0 **** 0.06
23899 H 46.51885580069215 125.89416384386114 42.34172428782589 H 0.0 **** 0.06
23900 H 47.519930563869195 127.36413564461473 42.28041042786801 H 0.0 **** 0.06
23901 C 108.03783458839648 68.43592645122476 71.60499684691229 C 0.0 **** -0.24
23902 H 108.8406127463288 67.81742297897142 71.2022212064482 H 0.0 **** 0.06
23903 H 107.3834491993209 68.7542455659046 70.79393079980537 H 0.0 **** 0.06
23904 H 108.46529498788378 69.31176785685403 72.09302543475519 H 0.0 **** 0.06
23905 H 107.46431234594878 67.85985403162994 72.33018178531836 H 0.0 **** 0.06
23906 C 64.50829599577372 47.357631560825695 85.19098657856394 C 0.0 **** -0.24
23907 H 65.33074845772882 47.48850808614117 84.48767956316328 H 0.0 **** 0.06
23908 H 64.11715010840118 46.34425868540015 85.10729838447263 H 0.0 **** 0.06
23909 H 63.71824582151311 48.07288918634478 84.96152037381471 H 0.0 **** 0.06
23910 H 64.86865846386542 47.52704729746644 86.20616721681455 H 0.0 **** 0.06
23911 C 69.38670348097139 47.36272119008731 46.86855186805003 C 0.0 **** -0.24
23912 H 68.61293890966958 46.72439265596057 46.439636195032215 H 0.0 **** 0.06
23913 H 69.5570865434726 48.21559689579777 46.21217997296349 H 0.0 **** 0.06
23914 H 70.30910936446219 46.793559851336795 46.973880408346794 H 0.0 **** 0.06
23915 H 69.0633905676384 47.71578824444242 47.84804608063655 H 0.0 **** 0.06
23916 C 30.185007727510992 3.4507393861149183 65.27714203114452 C 0.0 **** -0.24
23917 H 31.167751841222582 3.038855048113458 65.50792288357162 H 0.0 **** 0.06
23918 H 29.826983711272874 4.03416676362226 66.12537712054372 H 0.0 **** 0.06
23919 H 29.48831750799377 2.636427802137728 65.07606767389584 H 0.0 **** 0.06
23920 H 30.25739192441165 4.092624590236781 64.39898065623737 H 0.0 **** 0.06
23921 C 102.6639869138834 99.4040382133017 71.87611930809385 C 0.0 **** -0.24
23922 H 102.78932619253769 100.47823761970466 71.73446741649823 H 0.0 **** 0.06
23923 H 101.94695664344849 99.2253630105169 72.67799541233434 H 0.0 **** 0.06
23924 H 103.62276804631095 98.95860430558115 72.14026852152813 H 0.0 **** 0.06
23925 H 102.29608978384431 98.95620454376783 70.95324816466723 H 0.0 **** 0.06
23926 C 113.20442479656943 23.29937466711499 118.14066573978039 C 0.0 **** -0.24
23927 H 114.22951043954113 23.26436265205328 118.51051177903022 H 0.0 **** 0.06
23928 H 112.9734079282148 22.368771087647417 117.62142426948122 H 0.0 **** 0.06
23929 H 113.09688887960989 24.136859214295754 117.45104761888567 H 0.0 **** 0.06
23930 H 112.52024285421739 23.42765288709984 118.97900707662859 H 0.0 **** 0.06
23931 C 15.353476415592183 82.08513313591743 17.638044696671813 C 0.0 **** -0.24
23932 H 14.501461758531008 82.73782022329705 17.446579067999124 H 0.0 **** 0.06
23933 H 15.101077867529312 81.38329726355705 18.43382288898775 H 0.0 **** 0.06
23934 H 16.209754143056784 82.68708556566304 17.942697302885023 H 0.0 **** 0.06
23935 H 15.60041962031437 81.53463349983089 16.7305863555371 H 0.0 **** 0.06
23936 C 35.80135797662141 122.3350494865262 28.14805750604644 C 0.0 **** -0.24
23937 H 34.92230365499905 122.90430218668405 28.448649054210215 H 0.0 **** 0.06
23938 H 36.17857971455072 122.72237272714443 27.20191803250151 H 0.0 **** 0.06
23939 H 35.53095566689213 121.28520263110397 28.029277400180206 H 0.0 **** 0.06
23940 H 36.57365486270836 122.42695067204403 28.91273210752246 H 0.0 **** 0.06
23941 C 43.93790239084535 115.97629173161103 18.352607482954312 C 0.0 **** -0.24
23942 H 44.16265017968226 116.3686943527876 19.344242531142868 H 0.0 **** 0.06
23943 H 44.76194259379608 115.34794305935306 18.014873638176567 H 0.0 **** 0.06
23944 H 43.803277721842875 116.80513361030856 17.65746949636113 H 0.0 **** 0.06
23945 H 43.02239503497489 115.38485669646484 18.394873800095553 H 0.0 **** 0.06
23946 C 49.253245868328236 70.0439240989167 49.29479111161986 C 0.0 **** -0.24
23947 H 49.434538235743986 70.88716731568815 49.96244859378761 H 0.0 **** 0.06
23948 H 49.77073040929318 69.16300855091899 49.6756061022535 H 0.0 **** 0.06
23949 H 49.62606911760841 70.283157357373 48.29934664374886 H 0.0 **** 0.06
23950 H 48.18385619647469 69.84404363986192 49.24464245981048 H 0.0 **** 0.06
23951 C 34.85910680468288 73.22556419577397 74.59508826530487 C 0.0 **** -0.24
23952 H 35.37930183937391 72.69297151947197 73.7991431547585 H 0.0 **** 0.06
23953 H 33.92874594791064 72.70804725209013 74.82959279571298 H 0.0 **** 0.06
23954 H 34.63726674893957 74.24198104355902 74.26746754324637 H 0.0 **** 0.06
23955 H 35.4909093945347 73.25998537697114 75.48229799570157 H 0.0 **** 0.06
23956 C 31.03750858912659 16.625724343175023 123.51407179227267 C 0.0 **** -0.24
23957 H 32.03620555751567 16.765598089933405 123.09870659453118 H 0.0 **** 0.06
23958 H 30.5021288807022 17.575599918839373 123.50005453331723 H 0.0 **** 0.06
23959 H 31.117954540127812 16.26821645802238 124.53995529118981 H 0.0 **** 0.06
23960 H 30.49605796055738 15.893622796207922 122.91541832052911 H 0.0 **** 0.06
23961 C 119.94859723550542 103.68549739438626 44.55454733561953 C 0.0 **** -0.24
23962 H 120.74243731245798 104.35454640213342 44.88488468075536 H 0.0 **** 0.06
23963 H 120.31348828782453 102.65864905633649 44.56066715154083 H 0.0 **** 0.06
23964 H 119.64282955707642 103.95699281512336 43.54362256449963 H 0.0 **** 0.06
23965 H 119.09590135283418 103.77252723864973 45.227831079986686 H 0.0 **** 0.06
23966 C 76.34899954190823 95.43635853231396 109.1930953635046 C 0.0 **** -0.24
23967 H 77.30828474875327 95.06169785212313 108.83678130840462 H 0.0 **** 0.06
23968 H 76.51540560585894 96.28104686336971 109.86232937988228 H 0.0 **** 0.06
23969 H 75.82498147885795 94.64504278307012 109.72936482812247 H 0.0 **** 0.06
23970 H 75.74738337042655 95.75899111496332 108.34347094242526 H 0.0 **** 0.06
23971 C 125.72017641629324 112.76449966106878 3.0756476526458414 C 0.0 **** -0.24
23972 H 125.28714117809056 113.46676748527909 3.7885578167543486 H 0.0 **** 0.06
23973 H 124.93835121995536 112.39029948553576 2.414433555849996 H 0.0 **** 0.06
23974 H 126.17039359105767 111.9312944500104 3.614399905427547 H 0.0 **** 0.06
23975 H 126.48434893451956 113.27160681376836 2.486147697521119 H 0.0 **** 0.06
23976 C 71.27439406851303 68.80847798528896 67.58094671649087 C 0.0 **** -0.24
23977 H 71.5240466927175 68.81282424975085 68.64176674056523 H 0.0 **** 0.06
23978 H 70.272751608914 69.21601483719843 67.44142751225934 H 0.0 **** 0.06
23979 H 71.30629025304101 67.78599293913038 67.20371008982545 H 0.0 **** 0.06
23980 H 71.99504400729218 69.41875484839564 67.03562356052237 H 0.0 **** 0.06
23981 C 41.50660414366734 109.79089034532561 36.863905146794906 C 0.0 **** -0.24
23982 H 40.844155605617026 109.70104098157347 37.72548831710759 H 0.0 **** 0.06
23983 H 42.5155574723523 109.49039254830117 37.147767378780145 H 0.0 **** 0.06
23984 H 41.51714862536651 110.82519943856707 36.520648737622906 H 0.0 **** 0.06
23985 H 41.14679236929284 109.14580303617588 36.06203648683271 H 0.0 **** 0.06
23986 C 39.951850869851484 53.50976953416463 128.61758035965408 C 0.0 **** -0.24
23987 H 39.25593540358244 53.05271923616806 127.91386225138653 H 0.0 **** 0.06
23988 H 39.41530188734896 53.80754219883224 129.51854601373483 H 0.0 **** 0.06
23989 H 40.407694216144705 54.387676421483874 128.15954343736317 H 0.0 **** 0.06
23990 H 40.72847197232997 52.79114028017429 128.8783697361317 H 0.0 **** 0.06
23991 C 29.728958340261215 40.28531252151575 40.06007023771318 C 0.0 **** -0.24
23992 H 30.363362161432775 39.82521395468867 39.30168864694231 H 0.0 **** 0.06
23993 H 30.309045001618188 41.01615931955093 40.624114500931356 H 0.0 **** 0.06
23994 H 29.356710519475286 39.51625288421581 40.73697740318899 H 0.0 **** 0.06
23995 H 28.88804551635411 40.78207840513235 39.57658215616456 H 0.0 **** 0.06
23996 C 84.5418527503524 77.57153308168078 118.48348924829682 C 0.0 **** -0.24
23997 H 85.53061954996065 78.02803510368093 118.42462781119515 H 0.0 **** 0.06
23998 H 83.87793763558838 78.0512111326533 117.76520721122765 H 0.0 **** 0.06
23999 H 84.14268055816649 77.69848216294693 119.48986043675328 H 0.0 **** 0.06
24000 H 84.61984290308737 76.50906567231539 118.254572306758 H 0.0 **** 0.06
24001 C 50.46153107945307 39.839724124555886 16.380593395711287 C 0.0 **** -0.24
24002 H 50.44958782211094 38.78019663335675 16.12528708247686 H 0.0 **** 0.06
24003 H 50.19796603543344 40.42799045804034 15.502188248235313 H 0.0 **** 0.06
24004 H 51.45922156507376 40.12020067618846 16.720130047179055 H 0.0 **** 0.06
24005 H 49.740175563153315 40.02979572885306 17.175667293625224 H 0.0 **** 0.06
24006 C 130.7772407872629 42.61113065295302 59.31873944745462 C 0.0 **** -0.24
24007 H 131.25905212917772 42.20705065206954 58.427474196814785 H 0.0 **** 0.06
24008 H 129.9180669565184 43.21315427610364 59.02469982818667 H 0.0 **** 0.06
24009 H 131.4875665018716 43.231659004209064 59.86539604316181 H 0.0 **** 0.06
24010 H 130.44641544878525 41.79010838870391 59.955677096508964 H 0.0 **** 0.06
24011 C 38.40560161734163 91.2939750069022 5.840959633271773 C 0.0 **** -0.24
24012 H 39.16024814855115 91.73629777138174 5.191566389796694 H 0.0 **** 0.06
24013 H 37.94889657438597 92.07461263391488 6.450685768783853 H 0.0 **** 0.06
24014 H 38.873519157466774 90.55303888760395 6.489478202924772 H 0.0 **** 0.06
24015 H 37.639700044413644 90.8129827104814 5.2330742605340355 H 0.0 **** 0.06
24016 C 74.6992595886089 46.752065313571514 3.12404585056575 C 0.0 **** -0.24
24017 H 74.6680458492292 47.82545034729817 2.9365551799529044 H 0.0 **** 0.06
24018 H 75.36768381115607 46.27783439825966 2.4048298780222694 H 0.0 **** 0.06
24019 H 73.69847386619733 46.33519363183229 3.020598792107222 H 0.0 **** 0.06
24020 H 75.06537385638231 46.57106496822023 4.135153533053341 H 0.0 **** 0.06
24021 C 100.39814767355834 60.16103898352169 94.27078946300747 C 0.0 **** -0.24
24022 H 100.84259907100137 59.37286885333489 93.6625080253668 H 0.0 **** 0.06
24023 H 99.52479619996275 59.76722368518904 94.79274569237188 H 0.0 **** 0.06
24024 H 100.09540484998516 60.987320386392284 93.62796579472436 H 0.0 **** 0.06
24025 H 101.12779257949866 60.51420091798168 94.99805510391784 H 0.0 **** 0.06
24026 C 101.50513281312311 107.62723060099785 22.76045665765112 C 0.0 **** -0.24
24027 H 102.49389484204838 108.04108048519069 22.56564052764191 H 0.0 **** 0.06
24028 H 101.10886370691509 107.18730095734153 21.845247294808843 H 0.0 **** 0.06
24029 H 100.8391303267943 108.42103781562108 23.099485112730285 H 0.0 **** 0.06
24030 H 101.57803946770713 106.85995863526247 23.530798648831208 H 0.0 **** 0.06
24031 C 66.46507185957918 33.84540957693673 40.08313811535156 C 0.0 **** -0.24
24032 H 66.82722725766038 33.219350593179854 40.898582830568955 H 0.0 **** 0.06
24033 H 67.25505779345688 34.52763124066706 39.76991412504292 H 0.0 **** 0.06
24034 H 65.60206227171145 34.419663174801826 40.42327168621172 H 0.0 **** 0.06
24035 H 66.17312730815416 33.21513419957739 39.24303526118671 H 0.0 **** 0.06
24036 C 55.84072023906347 126.22808640172263 49.19300129941739 C 0.0 **** -0.24
24037 H 56.52164312338601 126.97826580530352 48.78918644652934 H 0.0 **** 0.06
24038 H 54.93139258284282 126.20268294052306 48.5919435766926 H 0.0 **** 0.06
24039 H 55.58914227318877 126.48380698744393 50.222263159513986 H 0.0 **** 0.06
24040 H 56.32213243867429 125.25104781156853 49.16860267231402 H 0.0 **** 0.06
24041 C 97.18270748046221 115.97479775114465 55.23174774556624 C 0.0 **** -0.24
24042 H 98.2210037693653 115.78980817917628 54.95653302949262 H 0.0 **** 0.06
24043 H 97.14869094504844 116.6532966799104 56.08464785484827 H 0.0 **** 0.06
24044 H 96.70513589417031 115.03146918337723 55.49797340730207 H 0.0 **** 0.06
24045 H 96.657806659109 116.42326602450541 54.38879000288473 H 0.0 **** 0.06
24046 C 97.91365635556807 66.37136670289846 56.71575835261419 C 0.0 **** -0.24
24047 H 97.90322352778682 66.81538489694265 55.72087222307084 H 0.0 **** 0.06
24048 H 98.9207048524199 66.43307533737885 57.130333961619215 H 0.0 **** 0.06
24049 H 97.61116495932691 65.32659034458425 56.65159657198504 H 0.0 **** 0.06
24050 H 97.22052872173285 66.911701844622 57.361764991559454 H 0.0 **** 0.06
24051 C 102.10033930286949 18.860524763249032 43.13918017891401 C 0.0 **** -0.24
24052 H 101.63561606161636 19.678132800463572 42.588766845886084 H 0.0 **** 0.06
24053 H 101.38976599664392 18.0391832882965 43.23652635216801 H 0.0 **** 0.06
24054 H 102.39205509501784 19.208758644238543 44.12971917284686 H 0.0 **** 0.06
24055 H 102.98326326734758 18.515573711096565 42.600539717657746 H 0.0 **** 0.06
24056 C 52.308695623177826 2.6265537706789246 62.65891656562543 C 0.0 **** -0.24
24057 H 53.024863944814925 2.6206414700952223 61.83752724135812 H 0.0 **** 0.06
24058 H 51.40680696623063 3.156832534602529 62.35006407952278 H 0.0 **** 0.06
24059 H 52.74945587512782 3.1289195023436776 63.520468413698936 H 0.0 **** 0.06
24060 H 52.05424876486687 1.6018652007126946 62.92691939018698 H 0.0 **** 0.06
24061 C 110.55748557863252 39.76728000668221 57.322202748035494 C 0.0 **** -0.24
24062 H 109.88006433428863 39.50841473797223 58.13668526264084 H 0.0 **** 0.06
24063 H 111.01905066436849 40.732947467264864 57.52782736238379 H 0.0 **** 0.06
24064 H 109.99818937829453 39.821534538244634 56.388275198011485 H 0.0 **** 0.06
24065 H 111.33191459369392 39.00422336088056 57.23910178363863 H 0.0 **** 0.06
24066 C 26.264307977827492 11.60959128322796 17.687799723673713 C 0.0 **** -0.24
24067 H 26.449142593530688 10.726891105929116 17.075537495296636 H 0.0 **** 0.06
24068 H 26.96543156489276 11.627050081220816 18.52206189039113 H 0.0 **** 0.06
24069 H 25.243971801391403 11.578853377799032 18.070147398543895 H 0.0 **** 0.06
24070 H 26.39757573145235 12.50592199473207 17.08129705910001 H 0.0 **** 0.06
24071 C 129.36936018088736 54.929456979258134 14.016907537962368 C 0.0 **** -0.24
24072 H 129.02874080610948 54.586084426724824 13.040214040707198 H 0.0 **** 0.06
24073 H 130.25447372509302 54.36494409296887 14.311151853229362 H 0.0 **** 0.06
24074 H 128.57934271468596 54.77597192865488 14.751544299478127 H 0.0 **** 0.06
24075 H 129.61516892811298 55.989524606203304 13.962925147263235 H 0.0 **** 0.06
24076 C 75.73014321993847 14.969476486193713 13.004609425038495 C 0.0 **** -0.24
24077 H 74.90152470836401 15.640700772891535 12.780464942407946 H 0.0 **** 0.06
24078 H 75.57055775911661 14.508623499241338 13.980461662206494 H 0.0 **** 0.06
24079 H 76.66254398172944 15.534518155177466 13.017580201500493 H 0.0 **** 0.06
24080 H 75.78599184911226 14.193528455842994 12.241239235780029 H 0.0 **** 0.06
24081 C 20.37482328126623 89.1942877008394 62.96042524250015 C 0.0 **** -0.24
24082 H 21.085510164795096 88.57339231327077 63.50724571091996 H 0.0 **** 0.06
24083 H 20.918161994820537 89.88723135116888 62.31681301869867 H 0.0 **** 0.06
24084 H 19.765444155939633 89.75640301859286 63.66805503147191 H 0.0 **** 0.06
24085 H 19.731610150146423 88.55983910500717 62.351279716113595 H 0.0 **** 0.06
24086 C 85.99444035366989 46.43793107205853 90.04811305268667 C 0.0 **** -0.24
24087 H 85.25355783699891 45.83726801189795 89.5188177169476 H 0.0 **** 0.06
24088 H 86.34729722155618 47.236929269284715 89.39519771137407 H 0.0 **** 0.06
24089 H 86.8342656966166 45.8073241933957 90.33687719500846 H 0.0 **** 0.06
24090 H 85.5410554701451 46.87062643468647 90.9400403772099 H 0.0 **** 0.06
24091 C 42.635906350195 116.93442871220182 112.04097732378361 C 0.0 **** -0.24
24092 H 43.42612806043246 116.74155409641983 112.7656927379887 H 0.0 **** 0.06
24093 H 42.642681634297105 117.98991088176726 111.76825039921786 H 0.0 **** 0.06
24094 H 41.67088751051017 116.67910167315992 112.48000155203417 H 0.0 **** 0.06
24095 H 42.80224468405015 116.32701956179432 111.15143073060679 H 0.0 **** 0.06
24096 C 63.257777402970305 102.13556991471239 55.05555943259421 C 0.0 **** -0.24
24097 H 64.07396269823778 101.4188605029143 54.95377156810599 H 0.0 **** 0.06
24098 H 63.24128827920643 102.79292585497546 54.18538483539382 H 0.0 **** 0.06
24099 H 63.40693437776059 102.72858137140656 55.95724785683484 H 0.0 **** 0.06
24100 H 62.31116506626756 101.59935741566449 55.12426694061199 H 0.0 **** 0.06
24101 C 68.15497412979971 101.97820539735929 129.31916092905547 C 0.0 **** -0.24
24102 H 69.21512273136443 102.09542452559892 129.09500902326832 H 0.0 **** 0.06
24103 H 67.91446843018963 102.52385150364171 130.23179876848192 H 0.0 **** 0.06
24104 H 67.92682678128779 100.92139876242702 129.45627391307042 H 0.0 **** 0.06
24105 H 67.56270482826466 102.37399003647688 128.4934986966872 H 0.0 **** 0.06
24106 C 16.211597528344942 127.22030869907022 12.89086875451676 C 0.0 **** -0.24
24107 H 16.75812033463631 128.12573829641795 12.628137897229124 H 0.0 **** 0.06
24108 H 16.4081622589769 126.96624311627565 13.932888670716466 H 0.0 **** 0.06
24109 H 16.535427446081584 126.4007001688681 12.249352180384506 H 0.0 **** 0.06
24110 H 15.142448756451962 127.38854533564782 12.75324269743777 H 0.0 **** 0.06
24111 C 42.39193504339755 94.80420615771159 93.4010002388759 C 0.0 **** -0.24
24112 H 41.43858315595236 94.29380110365746 93.26115969938816 H 0.0 **** 0.06
24113 H 43.18644725597608 94.22471413095728 92.93180224807887 H 0.0 **** 0.06
24114 H 42.59637548713613 94.90527430912135 94.46664078582353 H 0.0 **** 0.06
24115 H 42.34410351082062 95.79295261325895 92.94426718366331 H 0.0 **** 0.06
24116 C 22.95851374797818 26.669255808767417 59.93753883360101 C 0.0 **** -0.24
24117 H 23.875785466969745 27.044762581781285 59.48535783320324 H 0.0 **** 0.06
24118 H 23.135826058249904 25.673106781405068 60.3446788692377 H 0.0 **** 0.06
24119 H 22.1749689573523 26.619178876795203 59.18195079090066 H 0.0 **** 0.06
24120 H 22.647972979962745 27.339820927605693 60.73948233798062 H 0.0 **** 0.06
24121 C 68.35858668761904 128.34025829746818 109.3729027068448 C 0.0 **** -0.24
24122 H 68.62862946575804 128.39190419161443 110.42770461931903 H 0.0 **** 0.06
24123 H 69.26412310536062 128.28352950799402 108.76876852036378 H 0.0 **** 0.06
24124 H 67.79290424280538 129.23004708941335 109.09794143051488 H 0.0 **** 0.06
24125 H 67.74849670850087 127.45361462875911 109.19829533952057 H 0.0 **** 0.06
24126 C 102.25359234582672 2.593914182076446 96.69488552375674 C 0.0 **** -0.24
24127 H 101.27496648440689 2.154770043455983 96.49994105962494 H 0.0 **** 0.06
24128 H 102.48416955832064 2.511259573871712 97.75664245968883 H 0.0 **** 0.06
24129 H 102.24413051782648 3.6440592128116123 96.40544247612725 H 0.0 **** 0.06
24130 H 103.01109765018109 2.063861896027447 96.11607048217732 H 0.0 **** 0.06
24131 C 15.391239734981099 68.77858969474123 96.78747005703062 C 0.0 **** -0.24
24132 H 15.013064286902193 68.05277043694781 96.0676782846999 H 0.0 **** 0.06
24133 H 15.192389108640242 68.42423146682336 97.79906343523437 H 0.0 **** 0.06
24134 H 14.894821364810724 69.73591742065035 96.63234806219981 H 0.0 **** 0.06
24135 H 16.466115620062197 68.89961825953085 96.64863759059624 H 0.0 **** 0.06
24136 C 6.062370335840001 7.501595668926143 105.51627099162113 C 0.0 **** -0.24
24137 H 6.339360354706741 8.25452190361952 106.25483726495263 H 0.0 **** 0.06
24138 H 6.062352959502107 6.516523463858562 105.9849119264957 H 0.0 **** 0.06
24139 H 6.780804796760748 7.514597732721825 104.69699185138506 H 0.0 **** 0.06
24140 H 5.067175758789176 7.720199719664208 105.13072278160848 H 0.0 **** 0.06
24141 C 110.9503819659896 56.243813494046975 123.8733177208904 C 0.0 **** -0.24
24142 H 110.07705742396342 56.8956396894892 123.88988004605991 H 0.0 **** 0.06
24143 H 110.63891211156215 55.21370722384265 124.04308817559559 H 0.0 **** 0.06
24144 H 111.64461402907745 56.54837962608556 124.65730359664599 H 0.0 **** 0.06
24145 H 111.44212130423637 56.320272433973884 122.90328217903054 H 0.0 **** 0.06
24146 C 3.80260244669779 107.71858035913309 2.7191368257414297 C 0.0 **** -0.24
24147 H 2.8912608629384806 107.60126905458657 2.132884286887247 H 0.0 **** 0.06
24148 H 4.667749801994535 107.49270013984926 2.0945027428716116 H 0.0 **** 0.06
24149 H 3.779370504071732 107.03643491279558 3.568516182715797 H 0.0 **** 0.06
24150 H 3.873577569231273 108.74517179506375 3.0792202222506546 H 0.0 **** 0.06
24151 C 53.87209308003621 44.918005774064795 66.51035852276907 C 0.0 **** -0.24
24152 H 53.032705757877395 44.39555106558723 66.96904192170255 H 0.0 **** 0.06
24153 H 54.80726026156475 44.4694973359843 66.84683889181923 H 0.0 **** 0.06
24154 H 53.8474761197204 45.968498250788 66.7998598575079 H 0.0 **** 0.06
24155 H 53.80010900206213 44.83895707926585 65.42538566888813 H 0.0 **** 0.06
24156 C 57.36400410306419 108.9276584033503 51.51938250629857 C 0.0 **** -0.24
24157 H 57.70230431642642 108.06678338634356 50.94369545855679 H 0.0 **** 0.06
24158 H 56.7629437318019 109.57736437817223 50.88266272079585 H 0.0 **** 0.06
24159 H 58.22791761698244 109.47898055513801 51.889602378583106 H 0.0 **** 0.06
24160 H 56.76220111654828 108.58722655480454 52.362276814957596 H 0.0 **** 0.06
24161 C 108.76523190565186 79.12227248857441 85.03657195452317 C 0.0 **** -0.24
24162 H 109.10036332517706 80.09860080272563 85.3851237636359 H 0.0 **** 0.06
24163 H 108.91660477536263 79.04919311361068 83.95938201939734 H 0.0 **** 0.06
24164 H 107.70708039548069 78.99790238819254 85.26500769251336 H 0.0 **** 0.06
24165 H 109.33822475605066 78.34164339143628 85.53712952821874 H 0.0 **** 0.06
24166 C 19.975443559443278 110.1282906867271 37.46818670118819 C 0.0 **** -0.24
24167 H 20.257963419827547 110.48310466021431 38.459150888727436 H 0.0 **** 0.06
24168 H 19.04747830242181 109.5595262302373 37.53576631870189 H 0.0 **** 0.06
24169 H 20.764750524877 109.4902251189616 37.0711032102801 H 0.0 **** 0.06
24170 H 19.8307488863326 110.98170520508107 36.80489593319044 H 0.0 **** 0.06
24171 C 110.62265431719572 47.346874288521036 4.079099305906823 C 0.0 **** -0.24
24172 H 111.59457698053643 47.68215602822107 4.441669276603477 H 0.0 **** 0.06
24173 H 110.62885008230319 46.26188875997997 3.9736076027394063 H 0.0 **** 0.06
24174 H 110.4188575901062 47.80587758732932 3.110972034908059 H 0.0 **** 0.06
24175 H 109.8505992460278 47.63917779942872 4.789606867555619 H 0.0 **** 0.06
24176 C 6.300364506759593 54.76463480096558 43.41001605351278 C 0.0 **** -0.24
24177 H 6.594006848159239 55.569319661874246 44.08403676279036 H 0.0 **** 0.06
24178 H 6.753533291687887 53.830028637037174 43.74053812535135 H 0.0 **** 0.06
24179 H 6.637386109218085 54.99507049670699 42.3998377298214 H 0.0 **** 0.06
24180 H 5.2146472591902295 54.6642411708968 43.41684921250564 H 0.0 **** 0.06
24181 C 50.59488744991451 76.63504129760861 74.06660718324702 C 0.0 **** -0.24
24182 H 50.677167319264754 76.59988532403887 72.9801977020445 H 0.0 **** 0.06
24183 H 50.79985122232104 75.64724670542444 74.47941605971664 H 0.0 **** 0.06
24184 H 49.58701388014441 76.94296234862657 74.34426874338249 H 0.0 **** 0.06
24185 H 51.31505892010196 77.35095926085447 74.46256928465448 H 0.0 **** 0.06
24186 C 107.91326917365438 113.5385784263325 119.87110726081984 C 0.0 **** -0.24
24187 H 108.75812572567082 114.22735896599609 119.86860721654958 H 0.0 **** 0.06
24188 H 107.04564995437175 114.02677670922672 119.42784687757285 H 0.0 **** 0.06
24189 H 107.68436863271577 113.25047025723349 120.89694627111614 H 0.0 **** 0.06
24190 H 108.16801836034077 112.65067443198531 119.29176551073172 H 0.0 **** 0.06
24191 C 19.70839566922365 115.46509145562517 31.018511110824903 C 0.0 **** -0.24
24192 H 19.12491560070805 116.21128073787857 30.47866106964335 H 0.0 **** 0.06
24193 H 20.49586887238678 115.9612116956778 31.58644259448576 H 0.0 **** 0.06
24194 H 20.15601708633278 114.77046224094936 30.30777502328874 H 0.0 **** 0.06
24195 H 19.057591312187242 114.9179175034483 31.700123018825593 H 0.0 **** 0.06
24196 C 127.68457459063757 92.81390178430598 96.8059978152383 C 0.0 **** -0.24
24197 H 127.06344360205523 92.48097731442213 97.63821961585222 H 0.0 **** 0.06
24198 H 127.04744959288672 93.09229838998559 95.96675260793381 H 0.0 **** 0.06
24199 H 128.35095087607323 92.00526178309273 96.50397708057949 H 0.0 **** 0.06
24200 H 128.2760968629855 93.67548353346943 97.1156391566451 H 0.0 **** 0.06
24201 C 81.22983281808624 67.46716374525155 52.10922243048094 C 0.0 **** -0.24
24202 H 82.06703970167038 67.92737404164416 51.58510837059299 H 0.0 **** 0.06
24203 H 80.45875572263972 68.2161288498632 52.291962407940986 H 0.0 **** 0.06
24204 H 81.57431182512059 67.06159906930212 53.06028707230493 H 0.0 **** 0.06
24205 H 80.81784708469402 66.6633858112079 51.4992558381353 H 0.0 **** 0.06
24206 C 37.98713435746993 33.077605789010306 105.19335385172545 C 0.0 **** -0.24
24207 H 37.262439676921076 33.58188735765282 104.55362639064052 H 0.0 **** 0.06
24208 H 38.14381793079173 33.664288564442074 106.0990188545588 H 0.0 **** 0.06
24209 H 38.93205229425038 32.97196663131456 104.66000691739583 H 0.0 **** 0.06
24210 H 37.60874804385048 32.09062692949834 105.46104032157618 H 0.0 **** 0.06
24211 C 50.04918279524179 101.9619369459274 4.057431910953117 C 0.0 **** -0.24
24212 H 50.657086099431126 102.81043096266524 4.371743787797943 H 0.0 **** 0.06
24213 H 49.900322701577124 101.28801339887131 4.901270290787448 H 0.0 **** 0.06
24214 H 50.55817977317878 101.42996585817524 3.253559210851403 H 0.0 **** 0.06
24215 H 49.08265788453252 102.31959025352725 3.7023541986516832 H 0.0 **** 0.06
24216 C 49.45934632486477 91.01906761378848 5.430319674204725 C 0.0 **** -0.24
24217 H 48.97707545549662 91.09924714220091 4.456157718467708 H 0.0 **** 0.06
24218 H 48.73780154375869 91.25146952984471 6.212613650316655 H 0.0 **** 0.06
24219 H 50.29154692458481 91.72146728253935 5.481966204750023 H 0.0 **** 0.06
24220 H 49.83109719640096 90.00353700570128 5.568157860017195 H 0.0 **** 0.06
24221 C 52.41646547395902 96.3677096210018 90.55704967853919 C 0.0 **** -0.24
24222 H 53.270517161584564 97.03435285865093 90.6788528354723 H 0.0 **** 0.06
24223 H 52.65827463873852 95.59740340382335 89.82392199706393 H 0.0 **** 0.06
24224 H 51.55518009571459 96.94017869962447 90.21156137879345 H 0.0 **** 0.06
24225 H 52.18132019916935 95.89961048334 91.51238747719196 H 0.0 **** 0.06
24226 C 74.15235383812579 1.5900023063858129 24.069469892804058 C 0.0 **** -0.24
24227 H 74.70856706181445 2.4837066638751537 24.350821616746778 H 0.0 **** 0.06
24228 H 74.23982411290055 1.4317887761773846 22.99363811640776 H 0.0 **** 0.06
24229 H 73.10240982033996 1.715549339905003 24.3352141468905 H 0.0 **** 0.06
24230 H 74.55993657364985 0.7272514561061563 24.59764205023427 H 0.0 **** 0.06
24231 C 3.2772571619248367 43.10625413932783 92.81345884470836 C 0.0 **** -0.24
24232 H 2.9431661712845028 43.28053664486154 91.79077938633785 H 0.0 **** 0.06
24233 H 2.4696095626120496 42.64701358217113 93.38498227607205 H 0.0 **** 0.06
24234 H 3.552064493041115 44.05604055491895 93.27163035560268 H 0.0 **** 0.06
24235 H 4.1406406638312205 42.4425205089384 92.80597885845941 H 0.0 **** 0.06
24236 C 70.42257083180635 130.76158451400352 65.00986434224811 C 0.0 **** -0.24
24237 H 70.64611908582003 129.93976076750602 65.69028214813099 H 0.0 **** 0.06
24238 H 70.51563537289478 131.70853193849084 65.54179389420018 H 0.0 **** 0.06
24239 H 69.40491259282055 130.6541903244606 64.63392992253739 H 0.0 **** 0.06
24240 H 71.12186929822735 130.74187406812436 64.17446349354178 H 0.0 **** 0.06
24241 C 118.1505126753953 125.81285208143267 89.46417922284711 C 0.0 **** -0.24
24242 H 117.27343032876024 126.3134035510107 89.87475719326477 H 0.0 **** 0.06
24243 H 118.17914122886448 124.78218108800091 89.81782054162093 H 0.0 **** 0.06
24244 H 119.05076175592575 126.33425271903857 89.78833103514988 H 0.0 **** 0.06
24245 H 118.09673483146707 125.82287646594835 88.37520357239494 H 0.0 **** 0.06
24246 C 104.63169200418562 63.74245542300355 59.05839381184833 C 0.0 **** -0.24
24247 H 104.0337169515968 63.70421133596864 59.9695248436696 H 0.0 **** 0.06
24248 H 105.24223911607686 64.64628010886703 59.06346530031823 H 0.0 **** 0.06
24249 H 103.97094384020332 63.753600721148146 58.19143641476187 H 0.0 **** 0.06
24250 H 105.2792456267154 62.86687065363769 59.01185254649809 H 0.0 **** 0.06
24251 C 12.730355064393521 57.343632066757465 19.84293329769241 C 0.0 **** -0.24
24252 H 11.954622831326262 57.81966872407344 19.24395832374813 H 0.0 **** 0.06
24253 H 12.699164076581422 57.74007261385786 20.858107922549493 H 0.0 **** 0.06
24254 H 13.706242698314842 57.54696621022758 19.402893550791646 H 0.0 **** 0.06
24255 H 12.560440059818209 56.26690285862516 19.86857733050084 H 0.0 **** 0.06
24256 C 57.215677917793826 31.546574253921392 56.377140420071186 C 0.0 **** -0.24
24257 H 56.91347405476827 30.66772626015515 55.807882588098636 H 0.0 **** 0.06
24258 H 58.07710320194586 31.298654634670726 56.99875116114053 H 0.0 **** 0.06
24259 H 56.39050018538808 31.86992473928538 57.01136642206967 H 0.0 **** 0.06
24260 H 57.482515271206026 32.349708965383485 55.69018195423092 H 0.0 **** 0.06
24261 C 90.20356589071395 60.469475133842536 75.96794186877602 C 0.0 **** -0.24
24262 H 90.38144382157284 60.78756981567568 76.99565181602134 H 0.0 **** 0.06
24263 H 90.34598271832888 61.31639885947516 75.29650450316683 H 0.0 **** 0.06
24264 H 89.18255061741854 60.09898289146781 75.87399078852368 H 0.0 **** 0.06
24265 H 90.9039492377008 59.67687034593246 75.70766855565816 H 0.0 **** 0.06
24266 C 19.663537223692003 123.82178258256506 4.515556344179476 C 0.0 **** -0.24
24267 H 18.67592023236378 123.48825190549559 4.833899599598141 H 0.0 **** 0.06
24268 H 20.41782929336464 123.12894633575335 4.890498953064657 H 0.0 **** 0.06
24269 H 19.856225269397605 124.81832677374686 4.912589653107631 H 0.0 **** 0.06
24270 H 19.703422161726266 123.84917264482856 3.4264688979934306 H 0.0 **** 0.06
24271 C 107.78259929356273 18.922495053938164 108.48153846725893 C 0.0 **** -0.24
24272 H 107.45187721212358 17.899264737155036 108.302820518121 H 0.0 **** 0.06
24273 H 107.17463866975848 19.609017215986285 107.89004136552995 H 0.0 **** 0.06
24274 H 108.82852249720557 19.02207525248636 108.19163349078764 H 0.0 **** 0.06
24275 H 107.67408239254286 19.159950468364613 109.53861478257193 H 0.0 **** 0.06
24276 C 115.73887580994943 96.22907417660694 10.31622222239747 C 0.0 **** -0.24
24277 H 115.88479959968228 95.24523371128129 10.761368958035234 H 0.0 **** 0.06
24278 H 114.94202872925052 96.17793316716586 9.574390849949083 H 0.0 **** 0.06
24279 H 116.66295610396799 96.55125302773062 9.835610214828705 H 0.0 **** 0.06
24280 H 115.46647641603181 96.9425315234585 11.09451760488929 H 0.0 **** 0.06
24281 C 91.11525944981929 89.5650960889117 24.480290463157786 C 0.0 **** -0.24
24282 H 91.65490283323288 89.03771061029116 25.266232564556304 H 0.0 **** 0.06
24283 H 91.41508911010754 89.17213427229224 23.507681200771813 H 0.0 **** 0.06
24284 H 91.34697271645615 90.62824713384002 24.53118448761657 H 0.0 **** 0.06
24285 H 90.04365387053696 89.41935824114543 24.615599072439778 H 0.0 **** 0.06
24286 C 68.90925177200859 29.09586818235853 31.08761045288159 C 0.0 **** -0.24
24287 H 69.2490299787761 28.55929720963838 30.201234188278676 H 0.0 **** 0.06
24288 H 69.76672636428373 29.347386989247816 31.71119287933618 H 0.0 **** 0.06
24289 H 68.22145599454643 28.46531068440349 31.65128296077367 H 0.0 **** 0.06
24290 H 68.3985848809532 30.009374705248057 30.784703588444756 H 0.0 **** 0.06
24291 C 31.491787710621658 19.644329756233844 110.72435482054537 C 0.0 **** -0.24
24292 H 30.95531369175837 18.756100193850727 110.39031087939989 H 0.0 **** 0.06
24293 H 31.763793318450702 19.531299206629797 111.77384637316483 H 0.0 **** 0.06
24294 H 30.852591154517796 20.519392495835916 110.6067051854027 H 0.0 **** 0.06
24295 H 32.394159184530004 19.770066929840198 110.12621742670227 H 0.0 **** 0.06
24296 C 88.27110347673616 109.05829857289231 97.09480836061208 C 0.0 **** -0.24
24297 H 88.02883980196033 109.16117841690178 96.03662426930474 H 0.0 **** 0.06
24298 H 87.61864458767265 109.70668866317595 97.68119923950077 H 0.0 **** 0.06
24299 H 89.30988061483338 109.34333914672666 97.25950007452538 H 0.0 **** 0.06
24300 H 88.1247005890115 108.0223911092501 97.40134125143264 H 0.0 **** 0.06
24301 C 8.880013284353552 38.708118315474685 8.292826625660457 C 0.0 **** -0.24
24302 H 8.932456105172477 38.358863980202116 7.2620159812833265 H 0.0 **** 0.06
24303 H 8.28535150441681 38.00953920453175 8.882573297989875 H 0.0 **** 0.06
24304 H 8.415434829292394 39.69323033068069 8.318991153447552 H 0.0 **** 0.06
24305 H 9.886087001918938 38.76850635496253 8.707547512050038 H 0.0 **** 0.06
24306 C 85.18873786666504 75.32192394914638 121.5827972067043 C 0.0 **** -0.24
24307 H 85.6552237778836 76.30660292869698 121.59570574846921 H 0.0 **** 0.06
24308 H 84.10519643283928 75.43241742058734 121.63904396774544 H 0.0 **** 0.06
24309 H 85.53996783001065 74.74398911712412 122.43838553362849 H 0.0 **** 0.06
24310 H 85.4544479601577 74.80538225211325 120.66096954402738 H 0.0 **** 0.06
24311 C 27.333524606542596 93.80364671133214 14.99667503567079 C 0.0 **** -0.24
24312 H 26.27772451881134 93.53601875390018 14.959676404641584 H 0.0 **** 0.06
24313 H 27.733684869821786 93.84895521243709 13.98385799089479 H 0.0 **** 0.06
24314 H 27.87849564163224 93.0523458509021 15.569987490893737 H 0.0 **** 0.06
24315 H 27.444690125587158 94.77618363916832 15.476273436944268 H 0.0 **** 0.06
24316 C 123.20177173016116 107.16134434913477 92.66585697901218 C 0.0 **** -0.24
24317 H 122.57158732308703 107.15277392585614 93.55552920251063 H 0.0 **** 0.06
24318 H 124.25056258679253 107.1808885488965 92.96421968371965 H 0.0 **** 0.06
24319 H 122.9766834337483 108.04522029870081 92.0689515932412 H 0.0 **** 0.06
24320 H 123.00852603778017 106.26568082992661 92.07524081925689 H 0.0 **** 0.06
24321 C 72.67241363005695 64.97738867092642 91.55381288987508 C 0.0 **** -0.24
24322 H 72.32088585938013 65.81443095025213 90.95023941327577 H 0.0 **** 0.06
24323 H 72.99179580724433 64.16726480204778 90.89768801536468 H 0.0 **** 0.06
24324 H 71.86404022627838 64.62801929031383 92.19616866989304 H 0.0 **** 0.06
24325 H 73.51141616760711 65.30036570179067 92.16959857631747 H 0.0 **** 0.06
24326 C 76.10889719450228 21.81334024034831 93.34094675396074 C 0.0 **** -0.24
24327 H 75.35884015995481 22.396312204361585 93.87455855324362 H 0.0 **** 0.06
24328 H 75.63726270438343 20.939454217292834 92.89072832273723 H 0.0 **** 0.06
24329 H 76.88225552576353 21.490521115309427 94.03899206432004 H 0.0 **** 0.06
24330 H 76.55796815622904 22.426967991075628 92.56017488710523 H 0.0 **** 0.06
24331 C 26.81179930607908 115.71215627982534 95.90828033196732 C 0.0 **** -0.24
24332 H 25.954114142162695 116.22558004808917 96.34298674869689 H 0.0 **** 0.06
24333 H 26.525185390170805 114.69739891643339 95.63254238460686 H 0.0 **** 0.06
24334 H 27.620523145429246 115.67613161311203 96.63788599241212 H 0.0 **** 0.06
24335 H 27.144900252922753 116.25025262030367 95.02123381941394 H 0.0 **** 0.06
24336 C 26.338297722119705 21.033803066945815 31.260803715338994 C 0.0 **** -0.24
24337 H 27.204944359134572 20.969596603379728 31.91903667316774 H 0.0 **** 0.06
24338 H 26.581874209001967 21.652052735032093 30.39774101798895 H 0.0 **** 0.06
24339 H 25.50374902535833 21.47857919415216 31.803181959461767 H 0.0 **** 0.06
24340 H 26.06147861898478 20.033495918421643 30.92649201492091 H 0.0 **** 0.06
24341 C 87.28753535015107 5.109685967980511 82.83432370240314 C 0.0 **** -0.24
24342 H 87.95916373557793 5.351067505719016 82.00950019204822 H 0.0 **** 0.06
24343 H 87.87331248815008 4.869361300957451 83.7213798728219 H 0.0 **** 0.06
24344 H 86.67253992982944 4.252006891558921 82.56152210242459 H 0.0 **** 0.06
24345 H 86.64644718763867 5.9654126000171175 83.04165981875099 H 0.0 **** 0.06
24346 C 108.35747669475165 76.95528548438705 32.229629755809015 C 0.0 **** -0.24
24347 H 108.88742425291562 76.09611889934376 32.641096457213365 H 0.0 **** 0.06
24348 H 109.07828844732927 77.6711007064963 31.83252329448382 H 0.0 **** 0.06
24349 H 107.76971727275708 77.42934031884153 33.01573620422087 H 0.0 **** 0.06
24350 H 107.69488695398235 76.62537531422731 31.430259681874418 H 0.0 **** 0.06
24351 C 33.34379163140636 108.4415264130915 71.2589332507682 C 0.0 **** -0.24
24352 H 33.9478971909771 107.55497879046061 71.44930709929369 H 0.0 **** 0.06
24353 H 33.55611231219308 109.19512929499128 72.01676637892359 H 0.0 **** 0.06
24354 H 32.28702271996849 108.17590412042883 71.29678521575275 H 0.0 **** 0.06
24355 H 33.5833186986888 108.83951795603915 70.27293478339863 H 0.0 **** 0.06
24356 C 33.45582216909819 58.065959016324655 80.86612198404896 C 0.0 **** -0.24
24357 H 32.82964801348777 57.913092817940026 79.9881338164371 H 0.0 **** 0.06
24358 H 33.31203450125245 57.23923604471452 81.5632330345485 H 0.0 **** 0.06
24359 H 33.17904807597839 59.00234612864915 81.35168434673143 H 0.0 **** 0.06
24360 H 34.501973247801715 58.10904526003793 80.56381263567472 H 0.0 **** 0.06
24361 C 63.02100569137137 28.686485411326743 112.4727491446132 C 0.0 **** -0.24
24362 H 63.11793908381138 28.661667760352515 113.55861263867388 H 0.0 **** 0.06
24363 H 61.9877559887191 28.910069816389154 112.20595789116106 H 0.0 **** 0.06
24364 H 63.30091322091877 27.71683849960627 112.06173445237044 H 0.0 **** 0.06
24365 H 63.67713213224745 29.456169329812155 112.06681047138363 H 0.0 **** 0.06
24366 C 12.807830880088545 16.449694250742994 69.59469750095734 C 0.0 **** -0.24
24367 H 12.50331871944124 16.93224392055788 70.52307112932851 H 0.0 **** 0.06
24368 H 13.81127388257434 16.779591299814655 69.32606292427445 H 0.0 **** 0.06
24369 H 12.111354427267969 16.717832549408968 68.80052507012958 H 0.0 **** 0.06
24370 H 12.80551539299833 15.368030797411421 69.73132587855213 H 0.0 **** 0.06
24371 C 123.65389309080399 49.08020519353792 41.47283730360394 C 0.0 **** -0.24
24372 H 123.2430544668058 49.31429991853591 40.49023931382399 H 0.0 **** 0.06
24373 H 122.9733735905056 49.43894067378983 42.24542682436021 H 0.0 **** 0.06
24374 H 124.62239141497719 49.566693915868115 41.586028087334796 H 0.0 **** 0.06
24375 H 123.77529444912696 48.00095841949812 41.56796146560893 H 0.0 **** 0.06
24376 C 62.82104521444887 47.86104659642098 95.91841514903629 C 0.0 **** -0.24
24377 H 63.865297276088256 48.17107699114206 95.96298287029553 H 0.0 **** 0.06
24378 H 62.76009446667996 46.84187719912734 95.53623817855512 H 0.0 **** 0.06
24379 H 62.27113738592885 48.53080816876525 95.25654103761495 H 0.0 **** 0.06
24380 H 62.387302028999045 47.9013605450499 96.91787206965047 H 0.0 **** 0.06
24381 C 36.49705601799223 118.90546853529932 11.238440247217738 C 0.0 **** -0.24
24382 H 36.26104123594127 117.99723480540602 10.682226180134194 H 0.0 **** 0.06
24383 H 37.41293040067409 119.34466832098785 10.844437621395343 H 0.0 **** 0.06
24384 H 36.63469923752725 118.66037214001598 12.291148431374722 H 0.0 **** 0.06
24385 H 35.67814349777 119.61718576858706 11.134857807865444 H 0.0 **** 0.06
24386 C 33.54412194272271 104.2139267608123 51.60840136141795 C 0.0 **** -0.24
24387 H 34.51551406266234 104.63422553385985 51.34936136730403 H 0.0 **** 0.06
24388 H 33.312934120532034 103.39031336396465 50.9321057955885 H 0.0 **** 0.06
24389 H 32.7790165114139 104.98492904751912 51.51672459246018 H 0.0 **** 0.06
24390 H 33.569296859034914 103.84658569618844 52.634516489904485 H 0.0 **** 0.06
24391 C 58.477145383498055 28.495356396031767 83.6188016728749 C 0.0 **** -0.24
24392 H 58.25990594725977 29.352570683532463 82.98251471452267 H 0.0 **** 0.06
24393 H 59.31341081424421 28.734563826076908 84.2772912475778 H 0.0 **** 0.06
24394 H 58.73759071961672 27.638218499530325 82.99751643575317 H 0.0 **** 0.06
24395 H 57.598710874448784 28.255799617689036 84.21880657734883 H 0.0 **** 0.06
24396 C 15.02246476923083 90.88901003144764 29.29771592284918 C 0.0 **** -0.24
24397 H 15.415560469906513 90.34062999847775 30.153574882544405 H 0.0 **** 0.06
24398 H 15.840531185346464 91.15292582033926 28.62877932840712 H 0.0 **** 0.06
24399 H 14.528068448245808 91.79653506064396 29.645251688548683 H 0.0 **** 0.06
24400 H 14.303456292469122 90.26544175120797 28.76620967504482 H 0.0 **** 0.06
24401 C 116.09139347114589 47.40156873844754 69.90562144174967 C 0.0 **** -0.24
24402 H 116.75484819388726 47.99566222494337 70.53352285867285 H 0.0 **** 0.06
24403 H 115.11435201856219 47.88318918575928 69.85073704499075 H 0.0 **** 0.06
24404 H 115.98303533865496 46.40485233130758 70.33400610750817 H 0.0 **** 0.06
24405 H 116.51473375184611 47.322408018513016 68.90405762181786 H 0.0 **** 0.06
24406 C 85.49957889829551 123.16511496446991 108.9020604731889 C 0.0 **** -0.24
24407 H 85.35969554858525 124.02899254221647 109.55256850519581 H 0.0 **** 0.06
24408 H 84.60560255772447 122.53980036109803 108.9315831042487 H 0.0 **** 0.06
24409 H 86.35804782220697 122.5870657126318 109.24403947308956 H 0.0 **** 0.06
24410 H 85.67210345979402 123.50410358185671 107.88078409572272 H 0.0 **** 0.06
24411 C 117.98968919751792 44.152003746247914 8.509240093592553 C 0.0 **** -0.24
24412 H 118.87652031857324 44.657160764144294 8.125824586773945 H 0.0 **** 0.06
24413 H 117.80227848159329 43.25212603813647 7.922915238298913 H 0.0 **** 0.06
24414 H 117.13113766695983 44.81943502157705 8.435645083366978 H 0.0 **** 0.06
24415 H 118.1488203229454 43.87929316113363 9.552575465930488 H 0.0 **** 0.06
24416 C 108.39230175450717 16.397762360837504 41.25341378712096 C 0.0 **** -0.24
24417 H 109.18965631953199 16.794846820927773 41.882176172641294 H 0.0 **** 0.06
24418 H 108.78133606852936 16.206098104451968 40.252737685892896 H 0.0 **** 0.06
24419 H 107.58031485569217 17.122079068587 41.19656309145961 H 0.0 **** 0.06
24420 H 108.02128588687395 15.46701369811359 41.68340758212733 H 0.0 **** 0.06
24421 C 86.62869142617512 116.35098368053417 37.80037995757078 C 0.0 **** -0.24
24422 H 86.74037251738719 115.70029816116859 36.93255093746159 H 0.0 **** 0.06
24423 H 86.77014203522583 115.76870194289133 38.71071569472435 H 0.0 **** 0.06
24424 H 85.6304343336082 116.78837713724921 37.79889816555521 H 0.0 **** 0.06
24425 H 87.37311779273932 117.145855637928 37.75652319866598 H 0.0 **** 0.06
24426 C 88.01669272155524 67.51156204186726 117.16817623857185 C 0.0 **** -0.24
24427 H 88.4137915378532 68.19826835314184 117.91692956344085 H 0.0 **** 0.06
24428 H 87.17199825129057 67.97842816666518 116.66042845770099 H 0.0 **** 0.06
24429 H 87.68621650258632 66.59387291850265 117.65550021003924 H 0.0 **** 0.06
24430 H 88.79462836566077 67.27786023829029 116.44164196883065 H 0.0 **** 0.06
24431 C 93.61894058019602 2.2121771085004127 48.88747412710231 C 0.0 **** -0.24
24432 H 94.11570325933344 2.192246314255044 47.91673257940377 H 0.0 **** 0.06
24433 H 92.56461301664967 2.453163204883907 48.75056694043039 H 0.0 **** 0.06
24434 H 94.08625121988395 2.9673692086302026 49.519643519318635 H 0.0 **** 0.06
24435 H 93.71049355443054 1.234929638739601 49.36113316643696 H 0.0 **** 0.06
24436 C 60.93733178510914 39.54046429406992 117.82038968920506 C 0.0 **** -0.24
24437 H 60.89248714681028 38.96759232415479 116.89375967932 H 0.0 **** 0.06
24438 H 60.012273400711734 39.39875721990947 118.37891143551916 H 0.0 **** 0.06
24439 H 61.06297687216406 40.59814121507904 117.58745547666555 H 0.0 **** 0.06
24440 H 61.78061333926803 39.19721381823916 118.41919079777031 H 0.0 **** 0.06
24441 C 82.6152323716058 59.09397575654884 67.63660255814958 C 0.0 **** -0.24
24442 H 81.61476646571785 59.345553270728914 67.28432822277755 H 0.0 **** 0.06
24443 H 83.29782438444091 59.04828416036895 66.78693262485548 H 0.0 **** 0.06
24444 H 82.59205975607351 58.126678638607416 68.13693814307733 H 0.0 **** 0.06
24445 H 82.95664449793694 59.85771514884823 68.33587747680771 H 0.0 **** 0.06
24446 C 52.656617089808606 17.012057965334748 89.87836526989945 C 0.0 **** -0.24
24447 H 53.65318169177209 17.44889136825094 89.94983621596099 H 0.0 **** 0.06
24448 H 52.387530334188 16.56483201797866 90.83523607362557 H 0.0 **** 0.06
24449 H 52.65020307774071 16.246521687523312 89.10358372603177 H 0.0 **** 0.06
24450 H 51.936915180886274 17.791395604261226 89.62553026153736 H 0.0 **** 0.06
24451 C 107.9753686216529 4.707866519624588 77.77663856219158 C 0.0 **** -0.24
24452 H 108.38300328728077 5.18690134615872 78.66697282359796 H 0.0 **** 0.06
24453 H 106.89779561464681 4.8672111142045935 77.7387284290964 H 0.0 **** 0.06
24454 H 108.18390312468894 3.638711619474307 77.81174716367768 H 0.0 **** 0.06
24455 H 108.43739084745938 5.139170991018204 76.88852460956284 H 0.0 **** 0.06
24456 C 117.03797528090521 27.127289211554867 109.28340269455032 C 0.0 **** -0.24
24457 H 117.02117217890611 27.929790755528103 110.02077464416283 H 0.0 **** 0.06
24458 H 117.81148917559777 26.406025414142263 109.5492340714755 H 0.0 **** 0.06
24459 H 117.25145455715315 27.543781789382848 108.29875452026783 H 0.0 **** 0.06
24460 H 116.06709637620742 26.62957258150081 109.26557236897438 H 0.0 **** 0.06
24461 C 35.27771800490581 92.31687091962392 43.835869290697836 C 0.0 **** -0.24
24462 H 34.30916007482716 91.91201179739238 43.54303302553987 H 0.0 **** 0.06
24463 H 35.64590551586332 91.78060177631973 44.712009679862916 H 0.0 **** 0.06
24464 H 35.1719619857185 93.37533534310981 44.07586357328676 H 0.0 **** 0.06
24465 H 35.98480383544029 92.20016510165944 43.014734809644686 H 0.0 **** 0.06
24466 C 80.98051629306613 50.27428354773133 53.13314019196838 C 0.0 **** -0.24
24467 H 81.54852728283828 50.46098120331558 52.220914859613316 H 0.0 **** 0.06
24468 H 80.01371803505785 49.84265374890083 52.87638106546865 H 0.0 **** 0.06
24469 H 80.83101593896137 51.212669335327746 53.665700179112065 H 0.0 **** 0.06
24470 H 81.53248036838355 49.58018178051958 53.767814069093816 H 0.0 **** 0.06
24471 C 83.44387149686055 118.0717844907947 110.85638318249528 C 0.0 **** -0.24
24472 H 82.50026659677805 117.55506930848313 111.03191861445652 H 0.0 **** 0.06
24473 H 84.26474210701313 117.3568259653066 110.91284752828437 H 0.0 **** 0.06
24474 H 83.58094237074557 118.84355067429905 111.61348355613538 H 0.0 **** 0.06
24475 H 83.42753810368274 118.53086911154404 109.86786256749559 H 0.0 **** 0.06
24476 C 109.01505383442704 26.033707227186447 97.66640606347846 C 0.0 **** -0.24
24477 H 108.27223638542169 25.493186020033185 98.25365692213919 H 0.0 **** 0.06
24478 H 109.10609302100254 27.052697515027 98.04484261939305 H 0.0 **** 0.06
24479 H 108.70319022240433 26.06028855007358 96.62232225986602 H 0.0 **** 0.06
24480 H 109.97719538804586 25.52921840128822 97.74636256393953 H 0.0 **** 0.06
24481 C 46.16584985176897 111.54455291821304 79.32557626483363 C 0.0 **** -0.24
24482 H 45.45202264643443 112.22284021303511 79.79232298541963 H 0.0 **** 0.06
24483 H 47.06407329324392 111.48305050378704 79.93992760322867 H 0.0 **** 0.06
24484 H 46.426418141512826 111.91751241632315 78.33523600506778 H 0.0 **** 0.06
24485 H 45.71851454188311 110.554237492027 79.2350500330167 H 0.0 **** 0.06
24486 C 14.409612223658627 61.30954932694473 68.85467445005801 C 0.0 **** -0.24
24487 H 13.952236988931134 62.19828904179772 68.41850229327324 H 0.0 **** 0.06
24488 H 13.781898976582056 60.939395569399636 69.66576309479998 H 0.0 **** 0.06
24489 H 15.395671480657711 61.562725440007256 69.24424019679097 H 0.0 **** 0.06
24490 H 14.5076635824216 60.54021921782447 68.08873281616835 H 0.0 **** 0.06
24491 C 40.63763124547356 31.333112910253163 92.5480631105914 C 0.0 **** -0.24
24492 H 40.30317103911236 31.224437644313497 91.51677533422415 H 0.0 **** 0.06
24493 H 40.0835965323046 30.642025663584732 93.18466700617097 H 0.0 **** 0.06
24494 H 40.46161659402111 32.355722760049645 92.88124232040354 H 0.0 **** 0.06
24495 H 41.70306287121187 31.109249033682715 92.6099092118098 H 0.0 **** 0.06
24496 C 40.46074595461198 108.66934864922891 123.51192525749286 C 0.0 **** -0.24
24497 H 39.74951087322529 108.1901254354344 124.18372892587293 H 0.0 **** 0.06
24498 H 41.1955607765602 107.93704213932807 123.17724357259496 H 0.0 **** 0.06
24499 H 40.967938886712716 109.47903871674043 124.037298302295 H 0.0 **** 0.06
24500 H 39.92994903582141 109.07290929701517 122.64923588961689 H 0.0 **** 0.06
24501 C 35.59638250286209 89.42046703489297 24.380483062491834 C 0.0 **** -0.24
24502 H 35.26798007065638 88.47702991784695 24.816679948335263 H 0.0 **** 0.06
24503 H 36.68457502109868 89.47899640134315 24.41978807300228 H 0.0 **** 0.06
24504 H 35.16661253152473 90.24937734429125 24.941649581478828 H 0.0 **** 0.06
24505 H 35.26735935790472 89.4738092347458 23.342836767665545 H 0.0 **** 0.06
24506 C 121.38129403820068 85.85212058842127 88.07391949705496 C 0.0 **** -0.24
24507 H 120.33600642505414 85.58192748643114 88.22491943578763 H 0.0 **** 0.06
24508 H 121.94902407461464 84.96566309451474 87.79011988737142 H 0.0 **** 0.06
24509 H 121.78667422656113 86.26422394628842 88.99807381411472 H 0.0 **** 0.06
24510 H 121.45284609682844 86.5985931190462 87.28161485574685 H 0.0 **** 0.06
24511 C 118.17319073984022 13.319915732985649 62.75796885491209 C 0.0 **** -0.24
24512 H 119.0836561884993 12.902087533619547 63.18976491447734 H 0.0 **** 0.06
24513 H 117.92423624881181 14.250207169059134 63.26823835021759 H 0.0 **** 0.06
24514 H 117.3558209569974 12.609326703306522 62.87691542673605 H 0.0 **** 0.06
24515 H 118.33193800940016 13.516628340947378 61.69776938609118 H 0.0 **** 0.06
24516 C 0.6016110922144549 88.50377813181186 122.04714946463275 C 0.0 **** -0.24
24517 H 0.24584214145900773 88.58777697026161 121.02004472571457 H 0.0 **** 0.06
24518 H -0.2422009426852867 88.59722239039957 122.73222318357796 H 0.0 **** 0.06
24519 H 1.3223092944769235 89.29628191340629 122.24789385002322 H 0.0 **** 0.06
24520 H 1.079128227145219 87.53401006079685 122.18875725963113 H 0.0 **** 0.06
24521 C 21.247119120252556 84.65500516721876 99.72357517041573 C 0.0 **** -0.24
24522 H 20.572742026906262 84.50669085140451 98.88008606087976 H 0.0 **** 0.06
24523 H 22.249208259891894 84.87340607140938 99.35382674445589 H 0.0 **** 0.06
24524 H 21.273182780885584 83.74963521189211 100.33083578766062 H 0.0 **** 0.06
24525 H 20.89236647823501 85.4886463581394 100.33014291817773 H 0.0 **** 0.06
24526 C 126.37570276122449 15.059147941658978 91.49600447058646 C 0.0 **** -0.24
24527 H 126.77833782520639 15.923275043064791 90.96789197606083 H 0.0 **** 0.06
24528 H 127.05080531467365 14.782886751022602 92.30726021631045 H 0.0 **** 0.06
24529 H 126.27791963350091 14.223948868047557 90.80324305607458 H 0.0 **** 0.06
24530 H 125.3976369461019 15.307897909596534 91.90627524965848 H 0.0 **** 0.06
24531 C 5.601672716501412 21.247534852551382 107.64058239130885 C 0.0 **** -0.24
24532 H 5.492152924377592 21.78880326701875 108.57989987888232 H 0.0 **** 0.06
24533 H 5.637202053235399 20.176947626786102 107.83992399504952 H 0.0 **** 0.06
24534 H 6.524643735963309 21.55702612554535 107.14910280787927 H 0.0 **** 0.06
24535 H 4.753361185714255 21.469418489982843 106.99283268119007 H 0.0 **** 0.06
24536 C 123.68995819847771 61.832390619846905 77.08435463620303 C 0.0 **** -0.24
24537 H 124.45476015202894 62.59030452390763 77.25206844271521 H 0.0 **** 0.06
24538 H 122.75574652418473 62.31615560942191 76.80005826924553 H 0.0 **** 0.06
24539 H 123.54017152277899 61.25964961935259 78.00019699773583 H 0.0 **** 0.06
24540 H 124.01119269331463 61.16334087745534 76.2864490804281 H 0.0 **** 0.06
24541 C 31.739887804295172 84.35930992042466 86.44516370451556 C 0.0 **** -0.24
24542 H 30.69570215325338 84.63414537091637 86.29140626852488 H 0.0 **** 0.06
24543 H 32.384028557600274 85.12170445070154 86.00540374629273 H 0.0 **** 0.06
24544 H 31.936459825933 83.39843071926435 85.96995948427869 H 0.0 **** 0.06
24545 H 31.941592533121415 84.28431072516537 87.51366816760329 H 0.0 **** 0.06
24546 C 52.773276513854285 38.20393647634444 90.49581046589122 C 0.0 **** -0.24
24547 H 52.60400778965048 39.194149989366366 90.91908553056942 H 0.0 **** 0.06
24548 H 52.43813020326263 38.1898004300113 89.45898764592465 H 0.0 **** 0.06
24549 H 52.21393874082547 37.46451751709375 91.0690314812378 H 0.0 **** 0.06
24550 H 53.837036818427364 37.96791764505687 90.5382798765886 H 0.0 **** 0.06
24551 C 105.07777622082062 60.04816315461528 87.45729564376325 C 0.0 **** -0.24
24552 H 105.87938731183402 59.89514930655764 86.7352216513309 H 0.0 **** 0.06
24553 H 104.5423330102232 59.110432727330675 87.60845690712648 H 0.0 **** 0.06
24554 H 104.38891596389988 60.80360501834828 87.08158497023118 H 0.0 **** 0.06
24555 H 105.5019957310163 60.380810208995996 88.4047048581557 H 0.0 **** 0.06
24556 C 16.378262320828583 125.52791397548822 107.65198998013206 C 0.0 **** -0.24
24557 H 15.440530067267161 126.08061105065713 107.60942766279821 H 0.0 **** 0.06
24558 H 16.230640900236267 124.52933503236056 107.23852222907504 H 0.0 **** 0.06
24559 H 16.70469289171973 125.44650521950348 108.68901659251897 H 0.0 **** 0.06
24560 H 17.13649762677835 126.0529362656406 107.0716114429019 H 0.0 **** 0.06
24561 C 110.58598237825916 87.56820161306516 40.33330983571143 C 0.0 **** -0.24
24562 H 110.26033826402318 88.40951845962734 40.944519543492646 H 0.0 **** 0.06
24563 H 110.52807344239119 87.84197318010968 39.27878232130435 H 0.0 **** 0.06
24564 H 109.9403123463266 86.71077130692447 40.522624228242165 H 0.0 **** 0.06
24565 H 111.61467002988124 87.31169417757401 40.58668924645994 H 0.0 **** 0.06
24566 C 26.570518574756804 53.59465187257585 89.4992639754442 C 0.0 **** -0.24
24567 H 26.64916049097947 53.70610386665139 88.41788089545187 H 0.0 **** 0.06
24568 H 25.878869310385625 52.784684887947606 89.73131409517956 H 0.0 **** 0.06
24569 H 26.202123101078705 54.52343364043823 89.93391973129795 H 0.0 **** 0.06
24570 H 27.552866749119964 53.363478412468965 89.91212885685394 H 0.0 **** 0.06
24571 C 88.57781662296341 105.72919382620061 16.17039886767367 C 0.0 **** -0.24
24572 H 88.49271410446175 104.77642491460908 15.647842238546048 H 0.0 **** 0.06
24573 H 89.45693934659039 106.263162451774 15.808973575793573 H 0.0 **** 0.06
24574 H 88.67549308380129 105.55039601652237 17.24067082364718 H 0.0 **** 0.06
24575 H 87.68562221328051 106.32682899233143 15.981929117882999 H 0.0 **** 0.06
24576 C 123.18733573972472 80.83407073081005 128.99109816912573 C 0.0 **** -0.24
24577 H 122.62259778046214 80.45495093666028 129.84320480842243 H 0.0 **** 0.06
24578 H 124.2305160389318 80.97028059334588 129.27844861032477 H 0.0 **** 0.06
24579 H 122.7695592252052 81.78953185269927 128.67471032658943 H 0.0 **** 0.06
24580 H 123.12675900082422 80.12109112465556 128.16937378629774 H 0.0 **** 0.06
24581 C 21.004730854721316 130.87174232659922 118.11214616065335 C 0.0 **** -0.24
24582 H 21.827244969195732 131.23547298929014 118.72860544403304 H 0.0 **** 0.06
24583 H 21.390642508064687 130.5518560236634 117.14421774347343 H 0.0 **** 0.06
24584 H 20.277345736042662 131.67135349636249 117.96839500922567 H 0.0 **** 0.06
24585 H 20.524513612258687 130.02889543992353 118.60935436818366 H 0.0 **** 0.06
24586 C 40.26240659449669 70.49669069335269 38.944007097965425 C 0.0 **** -0.24
24587 H 40.08113169656599 71.34371333275135 39.6068431383938 H 0.0 **** 0.06
24588 H 40.254667873948634 69.5742290663925 39.523741581891755 H 0.0 **** 0.06
24589 H 41.232795677350126 70.61581189418139 38.46154501065732 H 0.0 **** 0.06
24590 H 39.4820046692184 70.45632891340857 38.18406484023413 H 0.0 **** 0.06
24591 C 47.92216000079202 97.12039502607394 28.821576005748298 C 0.0 **** -0.24
24592 H 47.74525960889676 98.17974746445537 28.631946869296712 H 0.0 **** 0.06
24593 H 46.968810696565875 96.59269569407951 28.847149093325555 H 0.0 **** 0.06
24594 H 48.42792948603767 97.0023901391449 29.779918088004592 H 0.0 **** 0.06
24595 H 48.5447453940552 96.70869223696945 28.02808080392117 H 0.0 **** 0.06
24596 C 91.60510456450295 62.16514864336082 87.98519324356144 C 0.0 **** -0.24
24597 H 90.73616493327322 62.30847373054186 88.62760846529304 H 0.0 **** 0.06
24598 H 91.29645552397534 62.215655189437314 86.94141295877097 H 0.0 **** 0.06
24599 H 92.04816493858897 61.19016367425232 88.18699328733501 H 0.0 **** 0.06
24600 H 92.33794018489614 62.94715218161184 88.1859466564085 H 0.0 **** 0.06
24601 C 30.598407460052428 56.061266284684635 0.12827972101084661 C 0.0 **** -0.24
24602 H 30.268326597085476 55.3089455532334 0.845142086719509 H 0.0 **** 0.06
24603 H 30.714889020497395 55.60095717465576 -0.8526336356474804 H 0.0 **** 0.06
24604 H 31.553222554181247 56.475738173176296 0.4522190297058639 H 0.0 **** 0.06
24605 H 29.856559713390894 56.85753169512293 0.07084486510482613 H 0.0 **** 0.06
24606 C 124.14599662464063 53.655565536392544 35.7323157236563 C 0.0 **** -0.24
24607 H 124.18243007138332 54.7302340218244 35.91379789926221 H 0.0 **** 0.06
24608 H 123.40071036105391 53.441867508654695 34.96609577220664 H 0.0 **** 0.06
24609 H 123.87778385844928 53.140566035668485 36.65429882888655 H 0.0 **** 0.06
24610 H 125.12424643022267 53.311484856004114 35.395227719259736 H 0.0 **** 0.06
24611 C 18.444836441843876 107.48208125616326 25.116531282889838 C 0.0 **** -0.24
24612 H 17.918820825125152 108.4228615610098 25.279477502009343 H 0.0 **** 0.06
24613 H 18.050099756825745 106.99355841629487 24.22537704065556 H 0.0 **** 0.06
24614 H 18.30140940973567 106.83190528218086 25.980471354843388 H 0.0 **** 0.06
24615 H 19.508391226555375 107.6784187675777 24.983271255196797 H 0.0 **** 0.06
24616 C 63.06816395909769 16.06060848887457 119.77265847896028 C 0.0 **** -0.24
24617 H 62.840181314158855 16.62110594533953 118.86545671359808 H 0.0 **** 0.06
24618 H 63.49458713442118 16.73338512357376 120.51723445715044 H 0.0 **** 0.06
24619 H 63.784105720544375 15.272261524250546 119.54198364091047 H 0.0 **** 0.06
24620 H 62.15313805832935 15.617667704887008 120.16515879764992 H 0.0 **** 0.06
24621 C 6.99299408638775 43.46512620582209 22.41007678386103 C 0.0 **** -0.24
24622 H 7.060870830494608 44.115172235644735 23.282604947918458 H 0.0 **** 0.06
24623 H 6.799358938165366 44.067364789073736 21.52306746903477 H 0.0 **** 0.06
24624 H 6.180534451810836 42.7516438063075 22.55150074201643 H 0.0 **** 0.06
24625 H 7.931970510200237 42.92575986996613 22.285981277229098 H 0.0 **** 0.06
24626 C 115.15347684626643 29.146997662353897 8.023971777151104 C 0.0 **** -0.24
24627 H 114.45009591278087 29.665081947682495 7.371747559160838 H 0.0 **** 0.06
24628 H 115.16861314065842 28.086708790811656 7.772395048446981 H 0.0 **** 0.06
24629 H 114.84354092073023 29.27015831414775 9.062295288900629 H 0.0 **** 0.06
24630 H 116.15027343055799 29.567636559241635 7.890184720692872 H 0.0 **** 0.06
24631 C 95.44881211694027 43.73093547956523 43.890697620767895 C 0.0 **** -0.24
24632 H 95.49129203372732 44.4387743888216 44.71775924845346 H 0.0 **** 0.06
24633 H 96.14369406962206 44.04260864430077 43.11000724881643 H 0.0 **** 0.06
24634 H 94.4368520786692 43.70265870061996 43.48684521410797 H 0.0 **** 0.06
24635 H 95.72490182094694 42.738054490368 44.24791936228502 H 0.0 **** 0.06
24636 C 109.45261354159157 53.18237126855324 99.7352785250952 C 0.0 **** -0.24
24637 H 108.97442823930088 53.904704992825714 100.39747813526347 H 0.0 **** 0.06
24638 H 109.59153164651809 53.62957009789585 98.750478294825 H 0.0 **** 0.06
24639 H 108.82311769651233 52.29753031950567 99.64814717183887 H 0.0 **** 0.06
24640 H 110.42199549959427 52.900526795631706 100.14572554283225 H 0.0 **** 0.06
24641 C 125.043019482203 21.671454250776677 66.32066917659516 C 0.0 **** -0.24
24642 H 125.66800169207838 21.424375541687603 65.46223581050437 H 0.0 **** 0.06
24643 H 123.9958633741555 21.674041508511635 66.0187621742314 H 0.0 **** 0.06
24644 H 125.31517494100021 22.658364486888743 66.69583860695813 H 0.0 **** 0.06
24645 H 125.19346444188204 20.929931308475922 67.10596502534052 H 0.0 **** 0.06
24646 C 29.809452749474673 2.2210265191865517 18.529309574311014 C 0.0 **** -0.24
24647 H 30.394000010834873 1.3734149249291079 18.88693864281916 H 0.0 **** 0.06
24648 H 30.331038180958416 2.696485362304145 17.697973265084755 H 0.0 **** 0.06
24649 H 29.68123296181838 2.940591581901316 19.337110416670185 H 0.0 **** 0.06
24650 H 28.832458668554438 1.8739099177858236 18.193464247447395 H 0.0 **** 0.06
24651 C 128.78574384110593 15.127004010801329 48.56797004641105 C 0.0 **** -0.24
24652 H 128.48165697939194 15.350777935867058 47.54471007715592 H 0.0 **** 0.06
24653 H 129.4511393128762 14.262423050283601 48.56750234637991 H 0.0 **** 0.06
24654 H 127.90395332036596 14.906490083522087 49.16856599010748 H 0.0 **** 0.06
24655 H 129.3072479095818 15.986797528997755 48.98816531528698 H 0.0 **** 0.06
24656 C 64.234666291917 12.550327858405637 11.715647286758355 C 0.0 **** -0.24
24657 H 63.63873887268784 11.81015636272761 12.250210822177138 H 0.0 **** 0.06
24658 H 63.62215992035766 13.022809499840577 10.947674945104438 H 0.0 **** 0.06
24659 H 65.08919288767942 12.060025586010227 11.248726010906267 H 0.0 **** 0.06
24660 H 64.58848173063217 13.30592859828468 12.416500040674947 H 0.0 **** 0.06
24661 C 119.9772538148253 66.79386409442043 117.44263174714595 C 0.0 **** -0.24
24662 H 120.18708843261929 67.62948216228605 116.773941667956 H 0.0 **** 0.06
24663 H 119.97339906373958 65.86485773252991 116.87098685070104 H 0.0 **** 0.06
24664 H 119.00274922914939 66.93837688678984 117.90783199516756 H 0.0 **** 0.06
24665 H 120.7452251817679 66.74441530335211 118.21353717439203 H 0.0 **** 0.06
24666 C 125.58908521121886 63.63802281201639 125.64557498700569 C 0.0 **** -0.24
24667 H 124.73026156634934 64.15497257709534 125.21846339881702 H 0.0 **** 0.06
24668 H 126.49378066041295 63.94018681149433 125.11778758248497 H 0.0 **** 0.06
24669 H 125.45185297450536 62.56069538770332 125.54501412822961 H 0.0 **** 0.06
24670 H 125.68061261092018 63.89525404575815 126.70111860597737 H 0.0 **** 0.06
24671 C 25.086581441650004 65.64191004237603 93.90794489837535 C 0.0 **** -0.24
24672 H 24.948532897453944 64.5612391045916 93.95160761821734 H 0.0 **** 0.06
24673 H 24.191385107055275 66.10559762285541 93.49475515470513 H 0.0 **** 0.06
24674 H 25.942505431300695 65.87278493277174 93.27341562177912 H 0.0 **** 0.06
24675 H 25.264499675298737 66.0259677183787 94.91320027006176 H 0.0 **** 0.06
24676 C 97.86938853493422 2.3211545100290607 68.49350295670735 C 0.0 **** -0.24
24677 H 97.91827245363902 1.5682284913469857 69.28069371523725 H 0.0 **** 0.06
24678 H 98.14484147374083 3.2932470442579387 68.90326055418342 H 0.0 **** 0.06
24679 H 96.85470021094113 2.3673159363227683 68.09804600846036 H 0.0 **** 0.06
24680 H 98.55965999174293 2.0542518292869545 67.69272846155951 H 0.0 **** 0.06
24681 C 49.68106504804662 36.561333046427706 39.61492302127414 C 0.0 **** -0.24
24682 H 50.03171940085549 35.67763151484718 40.14633199350055 H 0.0 **** 0.06
24683 H 49.488932175949174 37.36200709047472 40.32903400402466 H 0.0 **** 0.06
24684 H 48.762316288317095 36.322743727660225 39.079575193963564 H 0.0 **** 0.06
24685 H 50.44210706492882 36.883346789929305 38.90366518878132 H 0.0 **** 0.06
24686 C 121.42489209598321 65.42987307446649 47.09963574302551 C 0.0 **** -0.24
24687 H 122.03096174400795 64.77056170243108 46.47880442195036 H 0.0 **** 0.06
24688 H 121.03972360139959 64.87191438656373 47.95362570294555 H 0.0 **** 0.06
24689 H 120.59213697180917 65.8170616938821 46.513332670906635 H 0.0 **** 0.06
24690 H 122.03671697444543 66.2597522532063 47.45375910416195 H 0.0 **** 0.06
24691 C 125.50546957183892 6.757535156499458 49.7314778738388 C 0.0 **** -0.24
24692 H 125.58578218288656 7.542643363309878 50.483522071521975 H 0.0 **** 0.06
24693 H 124.46939844274459 6.425340568763161 49.661564544998 H 0.0 **** 0.06
24694 H 126.13826080843768 5.916850172990451 50.016694462851945 H 0.0 **** 0.06
24695 H 125.82989379820725 7.144796603503494 48.76603242318858 H 0.0 **** 0.06
24696 C 75.50537405731895 46.26860550906933 7.2320810030816745 C 0.0 **** -0.24
24697 H 76.444041648516 46.729003911089336 6.925504951248541 H 0.0 **** 0.06
24698 H 74.72557876787172 47.02943078052721 7.275170690043069 H 0.0 **** 0.06
24699 H 75.62731748366625 45.816194178444434 8.216322979523568 H 0.0 **** 0.06
24700 H 75.22485903782132 45.50008276798886 6.512234105493377 H 0.0 **** 0.06
24701 C 53.78834090783266 120.97508545759518 7.305076500262487 C 0.0 **** -0.24
24702 H 54.52156981287288 121.6212098309279 6.820903787060672 H 0.0 **** 0.06
24703 H 54.26697960280953 120.04165922241037 7.601727723755857 H 0.0 **** 0.06
24704 H 52.97628418440459 120.76320945352872 6.6095321760975025 H 0.0 **** 0.06
24705 H 53.390759622425406 121.47644260604329 8.18761296518744 H 0.0 **** 0.06
24706 C 8.137598208537842 100.89076139033341 114.2727204760241 C 0.0 **** -0.24
24707 H 7.365422508209633 101.58446974134631 114.6066859420737 H 0.0 **** 0.06
24708 H 9.032198603433145 101.02168875691063 114.88159208147577 H 0.0 **** 0.06
24709 H 8.37670397555651 101.09025080991285 113.2276874971377 H 0.0 **** 0.06
24710 H 7.7747058502640165 99.86834653345215 114.37381161445562 H 0.0 **** 0.06
24711 C 85.56405916481849 14.517447518092691 126.91074684915242 C 0.0 **** -0.24
24712 H 85.5164990579191 15.457258258459664 127.46097797060352 H 0.0 **** 0.06
24713 H 86.57120392235841 14.377008644651358 126.51994158237122 H 0.0 **** 0.06
24714 H 84.85317637900445 14.5439947491727 126.08552789646897 H 0.0 **** 0.06
24715 H 85.31455390439501 13.692764538597192 127.578953868071 H 0.0 **** 0.06
24716 C 51.737401512780394 96.69590233171492 12.424729165150666 C 0.0 **** -0.24
24717 H 52.556041687686886 96.63177101578611 13.141633562887339 H 0.0 **** 0.06
24718 H 51.29255224140242 95.70919176257526 12.291312844901562 H 0.0 **** 0.06
24719 H 52.11914107289202 97.05486174841371 11.469408033052858 H 0.0 **** 0.06
24720 H 50.9817831247977 97.38742036454074 12.797489318457696 H 0.0 **** 0.06
24721 C 16.774372129052352 127.3848988008249 48.10237718498027 C 0.0 **** -0.24
24722 H 16.81842832100736 126.48232331698537 48.71317592812753 H 0.0 **** 0.06
24723 H 15.888998714068236 127.34938310432273 47.46667592971235 H 0.0 **** 0.06
24724 H 17.666834013614164 127.44583584832135 47.47939890145554 H 0.0 **** 0.06
24725 H 16.721636855259504 128.25954406264566 48.74983843043353 H 0.0 **** 0.06
24726 C 4.337661271103631 129.01221156126655 94.89730019957906 C 0.0 **** -0.24
24727 H 4.967314884224965 128.3872187662903 95.53065934740286 H 0.0 **** 0.06
24728 H 4.1191268421725304 129.9482337093685 95.4118453793271 H 0.0 **** 0.06
24729 H 3.4056855909023014 128.48917425813931 94.68192655968723 H 0.0 **** 0.06
24730 H 4.8586900458160684 129.2235763359837 93.96288354546272 H 0.0 **** 0.06
24731 C 80.94868411924885 56.855155283143574 7.895498855620531 C 0.0 **** -0.24
24732 H 80.9826458424835 57.18318578845789 8.934687043733163 H 0.0 **** 0.06
24733 H 79.93145066201056 56.55443480254918 7.642772106604184 H 0.0 **** 0.06
24734 H 81.62260707037689 56.00938401424989 7.759972942171487 H 0.0 **** 0.06
24735 H 81.25763586448646 57.67468123564045 7.246489216015107 H 0.0 **** 0.06
24736 C 43.05715265776021 70.57619712533483 72.96414181349448 C 0.0 **** -0.24
24737 H 41.99842005513024 70.64837033994493 73.21365090814584 H 0.0 **** 0.06
24738 H 43.55278195382362 69.91288926715495 73.6721232302634 H 0.0 **** 0.06
24739 H 43.51036684373171 71.56645059851567 73.01464384793842 H 0.0 **** 0.06
24740 H 43.16564344162627 70.17886329979922 71.95522257969058 H 0.0 **** 0.06
24741 C 80.20854799061345 69.35227364457774 109.0519348179626 C 0.0 **** -0.24
24742 H 79.13468862253228 69.29129019392082 108.87528956428986 H 0.0 **** 0.06
24743 H 80.4878204160739 70.39071300461688 109.23128392071106 H 0.0 **** 0.06
24744 H 80.74277822495523 68.97774412094356 108.1787732284838 H 0.0 **** 0.06
24745 H 80.46796619922247 68.7503823820582 109.92261130518085 H 0.0 **** 0.06
24746 C 93.19253930961047 80.74122636209373 66.11121936570791 C 0.0 **** -0.24
24747 H 92.91583462539738 81.78597276641317 65.97090928700337 H 0.0 **** 0.06
24748 H 94.257118322787 80.6182430118024 65.90957079372296 H 0.0 **** 0.06
24749 H 92.61812042180443 80.11770504688464 65.42600072227842 H 0.0 **** 0.06
24750 H 92.97943915129595 80.44414035267224 67.1376630553292 H 0.0 **** 0.06
24751 C 4.6773901550789105 57.152581130641366 69.92333251190162 C 0.0 **** -0.24
24752 H 4.950584609343181 56.14972425464768 70.25445250843796 H 0.0 **** 0.06
24753 H 4.876710279354754 57.24944761793611 68.85585517243501 H 0.0 **** 0.06
24754 H 5.264814739376334 57.88866051891192 70.4725865398361 H 0.0 **** 0.06
24755 H 3.6163716455288437 57.319764240334564 70.11198315952227 H 0.0 **** 0.06
24756 C 61.53435440242305 111.70445299852527 65.64859565406198 C 0.0 **** -0.24
24757 H 60.647124369877986 111.98413136826687 65.07979745196121 H 0.0 **** 0.06
24758 H 61.35849113801717 110.75413612480777 66.15052622873446 H 0.0 **** 0.06
24759 H 61.7478993327054 112.47453296011774 66.39059763929066 H 0.0 **** 0.06
24760 H 62.382844821067465 111.60694111970734 64.97142218489114 H 0.0 **** 0.06
24761 C 111.35752521171645 108.7522655219879 0.24328634527051918 C 0.0 **** -0.24
24762 H 110.5854858506026 109.31665584635518 -0.2779037841510785 H 0.0 **** 0.06
24763 H 112.33665154340531 109.16519586224909 -0.0014843368898880271 H 0.0 **** 0.06
24764 H 111.31598139301508 107.7075170013264 -0.06616180651903392 H 0.0 **** 0.06
24765 H 111.1931597504909 108.81891602858703 1.3187895662337894 H 0.0 **** 0.06
24766 C 47.51117148782109 44.994060167118846 29.83703793338097 C 0.0 **** -0.24
24767 H 48.00813827034915 44.538885489750925 30.69385559814517 H 0.0 **** 0.06
24768 H 46.94576313340838 45.86500460037925 30.165733163253847 H 0.0 **** 0.06
24769 H 46.83395512125534 44.26963647690113 29.384286571206466 H 0.0 **** 0.06
24770 H 48.25855257387903 45.30032856291655 29.10485990053163 H 0.0 **** 0.06
24771 C 122.4522906657268 61.795398781324565 5.88634418723808 C 0.0 **** -0.24
24772 H 122.82545900244867 62.460143431812384 6.665226331533745 H 0.0 **** 0.06
24773 H 122.6092727648591 62.25594565593374 4.9102813093297755 H 0.0 **** 0.06
24774 H 121.38686784978907 61.62029190549019 6.03870010346202 H 0.0 **** 0.06
24775 H 122.98677611456026 60.847244924080556 5.9316758603560515 H 0.0 **** 0.06
24776 C 65.05203567819596 83.56912921908912 125.78034537887038 C 0.0 **** -0.24
24777 H 65.50313819618167 84.2982054926365 125.10668758913056 H 0.0 **** 0.06
24778 H 65.76347540120994 82.76799126978068 125.97764694721565 H 0.0 **** 0.06
24779 H 64.1551507736541 83.15510047674917 125.31889530044984 H 0.0 **** 0.06
24780 H 64.78508777689069 84.05728286398852 126.71787262090106 H 0.0 **** 0.06
24781 C 19.273992314655132 90.33618464986452 127.59827306739948 C 0.0 **** -0.24
24782 H 18.808947346709594 91.27644085280193 127.30251150014215 H 0.0 **** 0.06
24783 H 19.388626729665525 89.69732275778458 126.7221486773351 H 0.0 **** 0.06
24784 H 18.644747735768306 89.834928753176 128.33403205003168 H 0.0 **** 0.06
24785 H 20.253421716121203 90.53565038213122 128.03272896052025 H 0.0 **** 0.06
24786 C 3.6578357864176034 78.7130520860427 40.12967978865673 C 0.0 **** -0.24
24787 H 4.176236483592579 79.15364012361101 39.277720634163465 H 0.0 **** 0.06
24788 H 3.1844129790636906 79.50216166525729 40.71459126420563 H 0.0 **** 0.06
24789 H 4.374741979130452 78.17815216086905 40.75340016376985 H 0.0 **** 0.06
24790 H 2.897634834031475 78.01784574862944 39.773022883620335 H 0.0 **** 0.06
24791 C 36.80762378168046 39.45648376025014 5.433974307885819 C 0.0 **** -0.24
24792 H 36.516616387986886 39.28212581845713 4.398468908132543 H 0.0 **** 0.06
24793 H 37.851630989817465 39.17456432689164 5.570981087231985 H 0.0 **** 0.06
24794 H 36.180079403198505 38.85556553518046 6.093468740839683 H 0.0 **** 0.06
24795 H 36.680761869009224 40.51192043934026 5.67468977185456 H 0.0 **** 0.06
24796 C 50.77074425538018 55.389418706817025 57.31202658687738 C 0.0 **** -0.24
24797 H 50.669966409187964 55.06984494632138 58.34992541920087 H 0.0 **** 0.06
24798 H 50.67438944780059 56.47353522901864 57.25482891489213 H 0.0 **** 0.06
24799 H 49.989003402886624 54.923260612228205 56.71159891708811 H 0.0 **** 0.06
24800 H 51.747421088931844 55.089627393629655 56.93323514874487 H 0.0 **** 0.06
24801 C 113.60209197066156 59.219272385636515 95.02524696494885 C 0.0 **** -0.24
24802 H 112.86342543471379 58.78695936426679 94.35034499798671 H 0.0 **** 0.06
24803 H 113.32751117902252 58.99329551565556 96.05596775852892 H 0.0 **** 0.06
24804 H 113.63336827655728 60.3001958515529 94.88612917981446 H 0.0 **** 0.06
24805 H 114.5834184040476 58.79642199932128 94.80978592769122 H 0.0 **** 0.06
24806 C 8.413727311541361 27.008406820104938 26.135931924023623 C 0.0 **** -0.24
24807 H 7.536918031429032 26.366494856002078 26.224926437315617 H 0.0 **** 0.06
24808 H 8.11770969317854 27.970796358511194 25.717481853641686 H 0.0 **** 0.06
24809 H 9.144756572692057 26.53677866763732 25.479164401107766 H 0.0 **** 0.06
24810 H 8.854319698013786 27.16121950920501 27.121268980685215 H 0.0 **** 0.06
24811 C 122.94006496965247 37.92785070349947 57.44301887170178 C 0.0 **** -0.24
24812 H 123.23581179382634 37.348950639102895 58.317808553209545 H 0.0 **** 0.06
24813 H 123.38226409327314 37.48737048122706 56.549434753737785 H 0.0 **** 0.06
24814 H 123.28959800024208 38.954997353346926 57.55298230486238 H 0.0 **** 0.06
24815 H 121.85330374953165 37.92117297062117 57.35392352946218 H 0.0 **** 0.06
24816 C 49.460640208434924 58.42197685813315 65.60444944245465 C 0.0 **** -0.24
24817 H 49.15729781533901 59.43889070702696 65.3554613153957 H 0.0 **** 0.06
24818 H 50.306731834764776 58.132354939385664 64.98117134988304 H 0.0 **** 0.06
24819 H 48.62764329798594 57.741329721867686 65.42568940881526 H 0.0 **** 0.06
24820 H 49.748863176330744 58.37612294164521 66.65495096258427 H 0.0 **** 0.06
24821 C 94.97063329318462 77.76190877130014 102.21048554417266 C 0.0 **** -0.24
24822 H 94.79445580554778 78.34026286571937 103.11783252498049 H 0.0 **** 0.06
24823 H 95.35372236552344 76.77709726201665 102.47644697218462 H 0.0 **** 0.06
24824 H 95.69940732115161 78.27969283765256 101.58635047623184 H 0.0 **** 0.06
24825 H 94.03443533473514 77.6532776322351 101.66252555325215 H 0.0 **** 0.06
24826 C 7.092447091946639 115.39787042779672 9.551649387263225 C 0.0 **** -0.24
24827 H 6.265305628979547 114.78886147540344 9.1857318921341 H 0.0 **** 0.06
24828 H 6.703167028364248 116.19812902785834 10.181379248167943 H 0.0 **** 0.06
24829 H 7.626690315698767 115.82868957115025 8.705099631543945 H 0.0 **** 0.06
24830 H 7.772581433291663 114.77550042670045 10.131992606460202 H 0.0 **** 0.06
24831 C 4.4903793263020475 69.80461312064878 115.71012970495792 C 0.0 **** -0.24
24832 H 4.8638282523766065 70.45126788787277 114.91663998622528 H 0.0 **** 0.06
24833 H 5.215819560678824 69.01459246991263 115.90655871639058 H 0.0 **** 0.06
24834 H 3.5440498228316812 69.35990648464178 115.40050088148433 H 0.0 **** 0.06
24835 H 4.337399505925731 70.39145108463032 116.61627201800127 H 0.0 **** 0.06
24836 C 40.16536107427865 75.22728086584783 18.095829447721457 C 0.0 **** -0.24
24837 H 41.193651805034435 75.51908267540381 18.311922968030657 H 0.0 **** 0.06
24838 H 39.7213987553842 74.77629227590822 18.983997950787426 H 0.0 **** 0.06
24839 H 40.1569988711783 74.50688414399065 17.27860791187618 H 0.0 **** 0.06
24840 H 39.59104341241367 76.10830943768127 17.809229807955752 H 0.0 **** 0.06
24841 C 121.85149133861896 87.01389390371335 114.13432235370267 C 0.0 **** -0.24
24842 H 121.79924655238605 87.7427461816294 114.94315812983011 H 0.0 **** 0.06
24843 H 122.25402425268842 87.49136082143622 113.2403401797922 H 0.0 **** 0.06
24844 H 120.85162513523385 86.63300266752285 113.9242915057141 H 0.0 **** 0.06
24845 H 122.49947634530385 86.18913973500125 114.42959073391962 H 0.0 **** 0.06
24846 C 124.04953745934364 46.622979558932855 101.09909747937967 C 0.0 **** -0.24
24847 H 123.77612722874551 45.605869563450995 101.38118720595016 H 0.0 **** 0.06
24848 H 123.1505635126376 47.23751655691274 101.04271804625563 H 0.0 **** 0.06
24849 H 124.54333059485899 46.61027203857384 100.12785328584685 H 0.0 **** 0.06
24850 H 124.72657745989807 47.03669214480965 101.84689774657568 H 0.0 **** 0.06
24851 C 103.46811638001452 105.28057972033422 129.26413436846047 C 0.0 **** -0.24
24852 H 103.3574123174514 105.77103509349114 130.23099246556367 H 0.0 **** 0.06
24853 H 103.86493025290684 104.27485654703163 129.4100803798264 H 0.0 **** 0.06
24854 H 104.15314448371947 105.85496196563493 128.64081263690804 H 0.0 **** 0.06
24855 H 102.49563513773023 105.21982560757414 128.77393978433847 H 0.0 **** 0.06
24856 C 24.68182956032598 81.78990350847937 72.72768671792835 C 0.0 **** -0.24
24857 H 24.716750244425583 80.83178390937553 73.2456189661067 H 0.0 **** 0.06
24858 H 23.757451242758947 81.85956924413946 72.1532792437437 H 0.0 **** 0.06
24859 H 25.535034605679527 81.86965042307713 72.05349899071194 H 0.0 **** 0.06
24860 H 24.71957640377346 82.59830814862084 73.45752749216068 H 0.0 **** 0.06
24861 C 84.63069271645384 88.1130608385848 109.11697034061186 C 0.0 **** -0.24
24862 H 84.59215763526913 89.19286222330469 108.97090348853817 H 0.0 **** 0.06
24863 H 84.8012759638948 87.62323362769783 108.157256195939 H 0.0 **** 0.06
24864 H 83.6853845930649 87.77000165535509 109.5365443812982 H 0.0 **** 0.06
24865 H 85.44307722483848 87.86816918906693 109.8001539767038 H 0.0 **** 0.06
24866 C 83.52170818052258 80.95176119586685 3.717393261565004 C 0.0 **** -0.24
24867 H 83.17367175545229 79.93548468226476 3.904441947540107 H 0.0 **** 0.06
24868 H 82.6742426903416 81.58086992607191 3.447139941145675 H 0.0 **** 0.06
24869 H 84.24275543128692 80.94227274660409 2.899968460361798 H 0.0 **** 0.06
24870 H 83.99559564320015 81.34482702109867 4.6160763653437655 H 0.0 **** 0.06
24871 C 117.95411960011063 45.82711419276481 19.37408525249478 C 0.0 **** -0.24
24872 H 118.63374128491512 45.19057111035892 18.80900238803457 H 0.0 **** 0.06
24873 H 117.22757060442052 45.206911854674416 19.89898913257028 H 0.0 **** 0.06
24874 H 117.43225019461087 46.49777773304703 18.690490135635173 H 0.0 **** 0.06
24875 H 118.52161335390923 46.41342002725804 20.096358568353224 H 0.0 **** 0.06
24876 C 15.51720894966078 50.21000608952458 0.9288102699684941 C 0.0 **** -0.24
24877 H 16.263836593366864 50.25861523863226 0.1360399419378382 H 0.0 **** 0.06
24878 H 14.954603199191613 49.280889736170565 0.8422828493762609 H 0.0 **** 0.06
24879 H 14.837318151756897 51.057524914428214 0.8391172324562604 H 0.0 **** 0.06
24880 H 16.014814968557374 50.24521919483651 1.8979840208783116 H 0.0 **** 0.06
24881 C 22.786791356342206 74.41712302359072 123.10459035285153 C 0.0 **** -0.24
24882 H 22.19185689426652 74.31877814259639 122.19590899615152 H 0.0 **** 0.06
24883 H 23.765361623330506 73.96144971642967 122.94809552759509 H 0.0 **** 0.06
24884 H 22.278085668527012 73.91473841482241 123.9272644620755 H 0.0 **** 0.06
24885 H 22.91142959271326 75.47327322852587 123.34338423709802 H 0.0 **** 0.06
24886 C 22.739723139935307 116.50384345890186 94.54276206133152 C 0.0 **** -0.24
24887 H 21.655193402112815 116.39264228802983 94.53659397118608 H 0.0 **** 0.06
24888 H 23.10551950365135 116.55465846961732 93.51723130868274 H 0.0 **** 0.06
24889 H 23.189766378786857 115.6493165537477 95.04831258726718 H 0.0 **** 0.06
24890 H 23.007675803731644 117.4193156240917 95.06997979628943 H 0.0 **** 0.06
24891 C 22.06995322399365 72.12347407756809 28.21476295760837 C 0.0 **** -0.24
24892 H 22.10035113857856 73.16893911601376 28.522371986341255 H 0.0 **** 0.06
24893 H 22.302797234464208 72.05065139491734 27.15251017129549 H 0.0 **** 0.06
24894 H 21.07350287830039 71.72038204191176 28.39727877312876 H 0.0 **** 0.06
24895 H 22.80240177508253 71.55511147988582 28.787896922273546 H 0.0 **** 0.06
24896 C 22.138143188574247 56.05063393585755 79.29478237886693 C 0.0 **** -0.24
24897 H 22.5031934845573 55.675449050051895 80.24959121695326 H 0.0 **** 0.06
24898 H 22.44262756315058 57.090559344020164 79.17311098249003 H 0.0 **** 0.06
24899 H 21.050866333155994 55.98537241849047 79.26953587878177 H 0.0 **** 0.06
24900 H 22.557047392127856 55.45260838198513 78.48529847519129 H 0.0 **** 0.06
24901 C 23.114468070655278 90.27154262123047 66.83406049066649 C 0.0 **** -0.24
24902 H 22.84566730364969 91.0744518029191 67.51930305515262 H 0.0 **** 0.06
24903 H 23.386304531283884 89.38338836973521 67.40425117689101 H 0.0 **** 0.06
24904 H 23.96011249791121 90.58390702626717 66.22123142904381 H 0.0 **** 0.06
24905 H 22.264770737513345 90.04432802928433 66.18946721004794 H 0.0 **** 0.06
24906 C 1.0931888209227623 108.71576937767163 56.03893204103582 C 0.0 **** -0.24
24907 H 1.783163192514376 108.4362853152651 55.24310262307256 H 0.0 **** 0.06
24908 H 0.11812231725668632 108.9478312980662 55.60824751641894 H 0.0 **** 0.06
24909 H 1.4772448294405365 109.59046852856979 56.562590112093346 H 0.0 **** 0.06
24910 H 0.9923272123352866 107.88659284456352 56.74011728994111 H 0.0 **** 0.06
24911 C 62.74909365157018 50.58966200599181 84.76763356590867 C 0.0 **** -0.24
24912 H 61.83597353630262 51.16028337430228 84.93823368635326 H 0.0 **** 0.06
24913 H 63.445436180338305 51.186593709597076 84.17870225313919 H 0.0 **** 0.06
24914 H 62.5098502406465 49.672838316317666 84.22870092599072 H 0.0 **** 0.06
24915 H 63.20523023237027 50.3392277842253 85.72627566977737 H 0.0 **** 0.06
24916 C 61.880174568232235 16.31439915944688 24.43834843009894 C 0.0 **** -0.24
24917 H 61.71968123703789 16.1412657363841 25.50251297678303 H 0.0 **** 0.06
24918 H 62.94016981876513 16.489691017216018 24.2550909833302 H 0.0 **** 0.06
24919 H 61.30796871597758 17.186394950730943 24.12249998268988 H 0.0 **** 0.06
24920 H 61.55242227337834 15.440910780788556 23.87537515125171 H 0.0 **** 0.06
24921 C 89.22370603702939 28.85177500317556 70.10150651010946 C 0.0 **** -0.24
24922 H 88.55728384907039 28.641751914740027 69.26490789628193 H 0.0 **** 0.06
24923 H 89.84237506079339 27.97557045304658 70.30126842597807 H 0.0 **** 0.06
24924 H 88.63232171711212 29.088601203312237 70.98609535181905 H 0.0 **** 0.06
24925 H 89.86197718409679 29.699117017603733 69.85366210228176 H 0.0 **** 0.06
24926 C 42.28479159584319 12.359705613713203 103.48462189208809 C 0.0 **** -0.24
24927 H 42.618299582102 13.134698210667324 102.79466004137026 H 0.0 **** 0.06
24928 H 42.014245040429074 11.465327772234815 102.92289300898369 H 0.0 **** 0.06
24929 H 41.41664185033025 12.716495322892825 104.03917812507763 H 0.0 **** 0.06
24930 H 43.08918721374022 12.122936711375758 104.18035358850952 H 0.0 **** 0.06
24931 C 62.02322180518391 6.291600552829237 6.530192393717016 C 0.0 **** -0.24
24932 H 62.718737016928884 7.0651263064491765 6.2082594265925195 H 0.0 **** 0.06
24933 H 61.12159388902822 6.757101921663924 6.93113774358531 H 0.0 **** 0.06
24934 H 62.491043920680056 5.6799094431136545 7.301926772822668 H 0.0 **** 0.06
24935 H 61.75867990122421 5.663309157673286 5.679191206832513 H 0.0 **** 0.06
24936 C 130.2603689136389 8.56805153067549 75.23327122564353 C 0.0 **** -0.24
24937 H 130.9832248007829 9.098197934671958 74.6143596456286 H 0.0 **** 0.06
24938 H 129.2628112240913 8.968036755562352 75.05101328168458 H 0.0 **** 0.06
24939 H 130.51785444514638 8.698532525553588 76.28472042727127 H 0.0 **** 0.06
24940 H 130.27860383723882 7.506321606071253 74.9838366239286 H 0.0 **** 0.06
24941 C 118.66550364910313 77.93059628469905 129.1448445427127 C 0.0 **** -0.24
24942 H 118.39295406598596 78.8670585617864 129.63191293537912 H 0.0 **** 0.06
24943 H 119.69403996283965 77.99308115303751 128.78780080924378 H 0.0 **** 0.06
24944 H 117.99819217380897 77.75209502882393 128.30232445097707 H 0.0 **** 0.06
24945 H 118.57701192923042 77.11140175608216 129.85797284368067 H 0.0 **** 0.06
24946 C 40.1036999153948 102.52340620016055 118.12928443786512 C 0.0 **** -0.24
24947 H 39.75906178175191 103.18586593604907 118.9227654247751 H 0.0 **** 0.06
24948 H 41.04301992384717 102.05591363637797 118.42861907799045 H 0.0 **** 0.06
24949 H 40.25885696732274 103.09893116873238 117.21728624149216 H 0.0 **** 0.06
24950 H 39.355493510567186 101.75191196028658 117.9490422403835 H 0.0 **** 0.06
24951 C 130.00727871143908 7.956062325941474 44.01653076767619 C 0.0 **** -0.24
24952 H 130.62185170102902 7.061878716732338 43.90358701862195 H 0.0 **** 0.06
24953 H 129.47880593137424 8.151808408113226 43.08402263923571 H 0.0 **** 0.06
24954 H 130.64538370309631 8.805960495631979 44.25956495583628 H 0.0 **** 0.06
24955 H 129.28581092565875 7.8007930032094634 44.818990216530466 H 0.0 **** 0.06
24956 C 128.77257585198922 116.64225841655222 71.74684802122104 C 0.0 **** -0.24
24957 H 127.88259619674648 116.57885752088077 71.12171128345398 H 0.0 **** 0.06
24958 H 128.47814870121462 116.66490221271201 72.79654104032316 H 0.0 **** 0.06
24959 H 129.32274952969618 117.55115870100224 71.50468768291401 H 0.0 **** 0.06
24960 H 129.40692182280247 115.77382820403547 71.56583229326226 H 0.0 **** 0.06
24961 C 52.683368797410296 101.45543908926706 7.424709681244138 C 0.0 **** -0.24
24962 H 51.90961843228038 101.95338399805975 6.840317935308928 H 0.0 **** 0.06
24963 H 52.252187492280484 101.0837577783066 8.354899029045189 H 0.0 **** 0.06
24964 H 53.480464489308204 102.16378350272112 7.651476397980328 H 0.0 **** 0.06
24965 H 53.09015092368999 100.62063816586954 6.853506372764777 H 0.0 **** 0.06
24966 C 58.98892094710405 14.053977572971732 62.65076995706309 C 0.0 **** -0.24
24967 H 58.98148222030619 13.935223295972719 61.56711014992206 H 0.0 **** 0.06
24968 H 59.77908520888714 13.43785984255777 63.07757171482531 H 0.0 **** 0.06
24969 H 58.02581222571054 13.743299318944239 63.05562187742029 H 0.0 **** 0.06
24970 H 59.166805666930884 15.099615075798695 62.89999205358299 H 0.0 **** 0.06
24971 C 100.36650876750218 68.04597102703917 58.422458209502366 C 0.0 **** -0.24
24972 H 100.65037775298555 67.66347502132834 57.44222116949797 H 0.0 **** 0.06
24973 H 99.4464579384416 68.62590344584262 58.33436468205363 H 0.0 **** 0.06
24974 H 101.16208715135025 68.68400605422485 58.808477459790225 H 0.0 **** 0.06
24975 H 100.20620477499818 67.21177754351493 59.105506768029414 H 0.0 **** 0.06
24976 C 50.56690459041238 46.85867416702533 76.1287085478254 C 0.0 **** -0.24
24977 H 50.00242022870367 46.99546316093327 77.05133397211304 H 0.0 **** 0.06
24978 H 51.216835543192815 47.720395616961426 75.96938028521646 H 0.0 **** 0.06
24979 H 49.875183620371274 46.76587604479515 75.29050918888558 H 0.0 **** 0.06
24980 H 51.17139235699955 45.95580538964555 76.20196057670987 H 0.0 **** 0.06
24981 C 70.54122881310519 38.950062922759514 102.54225201690946 C 0.0 **** -0.24
24982 H 70.82669683248594 38.32470303973611 101.69562366522983 H 0.0 **** 0.06
24983 H 70.8024426287048 38.44306946513598 103.4720953078804 H 0.0 **** 0.06
24984 H 69.46648458911488 39.12829855384123 102.51489595956544 H 0.0 **** 0.06
24985 H 71.0692794373229 39.901096193320285 102.48569552682766 H 0.0 **** 0.06
24986 C 50.66346213239649 84.21545485504754 112.25474059284588 C 0.0 **** -0.24
24987 H 50.8003439219808 83.22316871255819 111.82439296270138 H 0.0 **** 0.06
24988 H 51.563689106822295 84.50323036584567 112.79700258953928 H 0.0 **** 0.06
24989 H 49.815033464753526 84.19969475648631 112.93932946261903 H 0.0 **** 0.06
24990 H 50.473275294899395 84.93431372314342 111.4573790697622 H 0.0 **** 0.06
24991 C 125.40500953459487 53.34842508383828 70.39366650364417 C 0.0 **** -0.24
24992 H 124.93089963268936 52.54741855769386 70.96046434274277 H 0.0 **** 0.06
24993 H 125.81466637091786 52.943986181358284 69.46761684617329 H 0.0 **** 0.06
24994 H 126.2082065221267 53.78600134163493 70.98659743639084 H 0.0 **** 0.06
24995 H 124.66614142530301 54.1149204047574 70.1602991998385 H 0.0 **** 0.06
24996 C 38.60518799662003 98.70950792424875 40.24862335495999 C 0.0 **** -0.24
24997 H 38.155391724128464 97.78508954216065 40.60923584906027 H 0.0 **** 0.06
24998 H 39.152107083689486 98.51208363207499 39.32635459650392 H 0.0 **** 0.06
24999 H 39.29130495267805 99.0975855642561 41.00235992341632 H 0.0 **** 0.06
25000 H 37.82298510193263 99.44419354624421 40.05758111363474 H 0.0 **** 0.06
25001 C 90.63840350607127 46.93405839726017 6.099788773132108 C 0.0 **** -0.24
25002 H 91.4446012415303 47.6682545839149 6.112968316306397 H 0.0 **** 0.06
25003 H 90.65138829879295 46.398586427377836 5.149987906823846 H 0.0 **** 0.06
25004 H 89.68213244171845 47.44188382435755 6.218676811621609 H 0.0 **** 0.06
25005 H 90.7789402413201 46.22720165670256 6.917649674942755 H 0.0 **** 0.06
25006 C 34.721782982844644 0.7856372329138424 42.546370433391644 C 0.0 **** -0.24
25007 H 34.74609754898035 0.38051064129934353 41.534774806153905 H 0.0 **** 0.06
25008 H 33.90224154275895 0.3290938632198124 43.1007957337649 H 0.0 **** 0.06
25009 H 34.57480369053533 1.8650883114551746 42.50139302117344 H 0.0 **** 0.06
25010 H 35.665014419244 0.5681819567142767 43.04631749429326 H 0.0 **** 0.06
25011 C 28.13289478506391 124.88214379176098 52.85484785411204 C 0.0 **** -0.24
25012 H 29.126474157678274 125.08831099493536 53.2522639568015 H 0.0 **** 0.06
25013 H 28.088753718329457 123.8512324245903 52.504053368595265 H 0.0 **** 0.06
25014 H 27.927278054810685 125.55723697331501 52.02393122433698 H 0.0 **** 0.06
25015 H 27.390449107459702 125.03288827019874 53.637760314406066 H 0.0 **** 0.06
25016 C 60.49579476719373 68.55041781122782 24.506705549894 C 0.0 **** -0.24
25017 H 60.18637794958278 68.27730274662468 25.515208314039334 H 0.0 **** 0.06
25018 H 60.05997011861086 67.85110076713761 23.79156560105431 H 0.0 **** 0.06
25019 H 61.58291957179887 68.51179355611248 24.436968178395574 H 0.0 **** 0.06
25020 H 60.15230207329972 69.56063166832325 24.281776097990637 H 0.0 **** 0.06
25021 C 24.693360223683044 48.31909524663777 104.2458294856383 C 0.0 **** -0.24
25022 H 23.861023986776388 48.95539405622982 104.54381202041986 H 0.0 **** 0.06
25023 H 24.311317080656863 47.35595892265499 103.90600749998441 H 0.0 **** 0.06
25024 H 25.356870245339337 48.166978694372915 105.09796301651964 H 0.0 **** 0.06
25025 H 25.24600458522974 48.79832442557215 103.43720094227582 H 0.0 **** 0.06
25026 C 97.23452654724063 10.821671444911985 43.218964641949924 C 0.0 **** -0.24
25027 H 96.44752118541041 11.475954247849174 43.592299576541336 H 0.0 **** 0.06
25028 H 98.198104916437 11.159830424534505 43.60000492370028 H 0.0 **** 0.06
25029 H 97.24421865323335 10.84970335740968 42.129162472027474 H 0.0 **** 0.06
25030 H 97.04826143388176 9.801197749854566 43.5543915955306 H 0.0 **** 0.06
25031 C 72.35592982628292 114.25538807825978 129.1153951038272 C 0.0 **** -0.24
25032 H 72.76792863613527 114.20193363881367 130.12313469087564 H 0.0 **** 0.06
25033 H 72.16787157267426 113.24742888833475 128.74627072606302 H 0.0 **** 0.06
25034 H 73.06597261652807 114.75709105470435 128.4580330856911 H 0.0 **** 0.06
25035 H 71.4211018316677 114.81638002452331 129.13542451968186 H 0.0 **** 0.06
25036 C 109.2750341751161 49.23392297925339 46.72626453625607 C 0.0 **** -0.24
25037 H 110.34063462187706 49.14963985045996 46.93728931640049 H 0.0 **** 0.06
25038 H 109.09851232508761 50.10094647428075 46.08889900348571 H 0.0 **** 0.06
25039 H 108.7279157128137 49.354330115401794 47.661158629750524 H 0.0 **** 0.06
25040 H 108.93309320008866 48.33299067886269 46.21801581449423 H 0.0 **** 0.06
25041 C 2.133774327505961 79.9502637003819 69.24907165016884 C 0.0 **** -0.24
25042 H 2.303382732622083 80.56116930638741 68.36251720137972 H 0.0 **** 0.06
25043 H 3.0482346384788315 79.41013713127401 69.49852949470221 H 0.0 **** 0.06
25044 H 1.3324930458550739 79.23740560630561 69.05208899509915 H 0.0 **** 0.06
25045 H 1.8518353509089707 80.59209580420236 70.0836190860415 H 0.0 **** 0.06
25046 C 116.37711788017148 117.33955940254984 68.27364148278164 C 0.0 **** -0.24
25047 H 116.56690490795222 116.26913755174891 68.19571585524494 H 0.0 **** 0.06
25048 H 117.32025533588599 117.86549402903833 68.42108287474363 H 0.0 **** 0.06
25049 H 115.71769708106473 117.53098946067695 69.11941872323817 H 0.0 **** 0.06
25050 H 115.90437574898316 117.69138725300033 67.35696679655283 H 0.0 **** 0.06
25051 C 76.74135476809352 94.71831421064763 85.78531030215657 C 0.0 **** -0.24
25052 H 75.6632890959241 94.58468100364132 85.87367902046557 H 0.0 **** 0.06
25053 H 77.04110659557391 95.62214537468205 86.31654809009682 H 0.0 **** 0.06
25054 H 77.010852419702 94.80852013190258 84.73235329708965 H 0.0 **** 0.06
25055 H 77.25069777072862 93.85677717156778 86.21799858484674 H 0.0 **** 0.06
25056 C 70.58856787989075 35.10294959801041 103.12731215273118 C 0.0 **** -0.24
25057 H 69.98074624283343 35.636156745550096 103.8576048392836 H 0.0 **** 0.06
25058 H 71.15194566002702 34.315492516016235 103.6299227398689 H 0.0 **** 0.06
25059 H 71.27983676604855 35.79845975602211 102.65188772178986 H 0.0 **** 0.06
25060 H 69.9411461185064 34.660529117101504 102.3709725559918 H 0.0 **** 0.06
25061 C 63.30609554273542 10.851151797597794 91.26472525028292 C 0.0 **** -0.24
25062 H 63.06069172855007 11.88097170202596 91.00859187801277 H 0.0 **** 0.06
25063 H 64.34101002701858 10.644972227941253 90.98789031385061 H 0.0 **** 0.06
25064 H 62.643384036594085 10.174016719556846 90.72568163002498 H 0.0 **** 0.06
25065 H 63.18080488655768 10.704077860558783 92.33737056288335 H 0.0 **** 0.06
25066 C 10.501955476852999 27.664122168089506 56.4809354511105 C 0.0 **** -0.24
25067 H 11.151764245321175 27.18565482475006 55.74835779553865 H 0.0 **** 0.06
25068 H 10.12086613398074 26.914556063656306 57.17358541103894 H 0.0 **** 0.06
25069 H 9.667362392326424 28.143195728372845 55.9681982625535 H 0.0 **** 0.06
25070 H 11.067942767774554 28.415321038203274 57.031875663698244 H 0.0 **** 0.06
25071 C 85.08895005494963 36.742121177869734 79.71732865721017 C 0.0 **** -0.24
25072 H 85.98020867924083 36.924529326082705 80.31688578103623 H 0.0 **** 0.06
25073 H 84.2240703768561 36.64225994024221 80.37333426553934 H 0.0 **** 0.06
25074 H 85.21890062448847 35.82417720896211 79.14327618419273 H 0.0 **** 0.06
25075 H 84.93303082691381 37.57853550957782 79.0349256882879 H 0.0 **** 0.06
25076 C 6.475611255154263 110.30501542935406 66.95889917091401 C 0.0 **** -0.24
25077 H 6.87584641773168 109.69419068637086 67.76741222295468 H 0.0 **** 0.06
25078 H 7.181564028804871 110.31627088548129 66.12830632162657 H 0.0 **** 0.06
25079 H 6.320089022924719 111.32300220040008 67.31668298942037 H 0.0 **** 0.06
25080 H 5.526206428627745 109.8888530619563 66.62471999056301 H 0.0 **** 0.06
25081 C 107.39436195185564 125.99011837030835 59.94545124444592 C 0.0 **** -0.24
25082 H 106.39379789095184 126.19507312944373 60.32673014381213 H 0.0 **** 0.06
25083 H 108.08588705711014 126.74893827892879 60.31369155916744 H 0.0 **** 0.06
25084 H 107.37768156606595 126.01147644389454 58.855295692703265 H 0.0 **** 0.06
25085 H 107.71800431367282 125.0065304096882 60.284270890694486 H 0.0 **** 0.06
25086 C 104.57184394513449 56.16469019334619 25.23312732905208 C 0.0 **** -0.24
25087 H 104.18961717195282 55.19987458533939 25.56513027353833 H 0.0 **** 0.06
25088 H 104.78316604538456 56.789743624328196 26.101815853447533 H 0.0 **** 0.06
25089 H 103.82722268879994 56.65358213803256 24.60545601057362 H 0.0 **** 0.06
25090 H 105.4880860401188 56.01537577732108 24.662217460950217 H 0.0 **** 0.06
25091 C 40.59204604724688 47.34305782416908 56.74027449222977 C 0.0 **** -0.24
25092 H 39.837636049710056 46.672196833310934 57.150142159443234 H 0.0 **** 0.06
25093 H 41.4654917252458 47.347959677099695 57.39308161859991 H 0.0 **** 0.06
25094 H 40.18314544100673 48.3512107575913 56.67169288843702 H 0.0 **** 0.06
25095 H 40.882308733039736 46.99940757424696 55.74783078939471 H 0.0 **** 0.06
25096 C 122.8160599693601 125.23658211148991 4.522094666626771 C 0.0 **** -0.24
25097 H 121.90528091597578 125.57896592640277 5.013838842301908 H 0.0 **** 0.06
25098 H 123.46485317636967 126.09059166192802 4.325586205030902 H 0.0 **** 0.06
25099 H 122.5590111980607 124.75012053470948 3.581503631402967 H 0.0 **** 0.06
25100 H 123.33320326928039 124.52761154398029 5.1681565647109835 H 0.0 **** 0.06
25101 C 106.60097139126333 46.61297309555994 19.84618610611335 C 0.0 **** -0.24
25102 H 106.81919871403583 47.386191004056286 20.582123817318802 H 0.0 **** 0.06
25103 H 106.14887847399588 47.067161453536414 18.964504533407336 H 0.0 **** 0.06
25104 H 105.91007910624877 45.8871445095258 20.27532034591593 H 0.0 **** 0.06
25105 H 107.52591804514718 46.11014272324451 19.562167047291894 H 0.0 **** 0.06
25106 C 14.34174265618077 65.34796137156674 26.958778049478248 C 0.0 **** -0.24
25107 H 14.041362296842493 65.4731234991247 25.918646071067386 H 0.0 **** 0.06
25108 H 15.422248623370592 65.21249742902185 27.011502559317606 H 0.0 **** 0.06
25109 H 13.8443060844848 64.4728652076379 27.377122451659055 H 0.0 **** 0.06
25110 H 14.057733285759326 66.23335451275383 27.52672001735843 H 0.0 **** 0.06
25111 C 109.15367435767833 2.9353168077818736 28.548651269640004 C 0.0 **** -0.24
25112 H 108.94125385384763 1.8822185504450317 28.72890935488124 H 0.0 **** 0.06
25113 H 110.1978226850714 3.1412156637261432 28.786139066491415 H 0.0 **** 0.06
25114 H 108.5100402494594 3.5490600333207 29.179750248136145 H 0.0 **** 0.06
25115 H 108.96543863160267 3.170288682692444 27.500632639750904 H 0.0 **** 0.06
25116 C 130.33090250216537 59.656572737191055 11.39733837559075 C 0.0 **** -0.24
25117 H 129.93440434631765 59.064768558871776 12.222580471587776 H 0.0 **** 0.06
25118 H 130.88356693838026 59.008210563419865 10.717031083478076 H 0.0 **** 0.06
25119 H 130.998022365724 60.42426509752676 11.79006223128502 H 0.0 **** 0.06
25120 H 129.5078520874162 60.1297640370864 10.862010002793511 H 0.0 **** 0.06
25121 C 63.0806629014228 86.41807572496782 18.404088186794723 C 0.0 **** -0.24
25122 H 63.79760824028112 86.31819875309952 17.58881309678253 H 0.0 **** 0.06
25123 H 62.06935147239031 86.43764966563444 17.997469760371104 H 0.0 **** 0.06
25124 H 63.27245728028771 87.34489574848772 18.945064201531665 H 0.0 **** 0.06
25125 H 63.183486895021844 85.5725596796752 19.083022070979013 H 0.0 **** 0.06
25126 C 118.04514861940046 97.31004763202515 65.72019553357899 C 0.0 **** -0.24
25127 H 118.98955563922411 96.87811479104764 65.38933323234227 H 0.0 **** 0.06
25128 H 117.53706858297055 97.76747577671097 64.8710797261636 H 0.0 **** 0.06
25129 H 118.23972802620375 98.06843396209179 66.479633214371 H 0.0 **** 0.06
25130 H 117.41499523107835 96.52700437216464 66.14266738503397 H 0.0 **** 0.06
25131 C 51.64850453243287 4.798056673482016 98.76311136890126 C 0.0 **** -0.24
25132 H 51.7081106802662 3.9000433304849125 99.3776026897387 H 0.0 **** 0.06
25133 H 50.60817266849085 4.99091246604182 98.50160092385323 H 0.0 **** 0.06
25134 H 52.231628813857014 4.654493287306753 97.85341301152278 H 0.0 **** 0.06
25135 H 52.046105967117285 5.646777610094151 99.31982885049007 H 0.0 **** 0.06
25136 C 35.61649297022399 104.57236046270089 123.4601818845744 C 0.0 **** -0.24
25137 H 35.65808087791498 103.8549602457316 122.64085788218549 H 0.0 **** 0.06
25138 H 36.354040467759944 105.35819109273442 123.29202875980666 H 0.0 **** 0.06
25139 H 35.834342238242186 104.06439729222097 124.4001189206842 H 0.0 **** 0.06
25140 H 34.62114827490154 105.01337778461874 123.50739514172153 H 0.0 **** 0.06
25141 C 49.3450948958384 106.00674458463959 54.39470432924608 C 0.0 **** -0.24
25142 H 50.329396515484376 106.24780164095955 54.79725909260233 H 0.0 **** 0.06
25143 H 49.266647886768936 106.38570229734336 53.376117296871314 H 0.0 **** 0.06
25144 H 48.57746049509491 106.46853146953458 55.0150838332506 H 0.0 **** 0.06
25145 H 49.209229134921316 104.92515043977983 54.39268392165715 H 0.0 **** 0.06
25146 C 0.02682027774915241 49.23079235585806 106.74434061387129 C 0.0 **** -0.24
25147 H 0.9340181935132819 49.153025856040756 106.14519056663954 H 0.0 **** 0.06
25148 H -0.797031460208359 48.74724783593268 106.21952400410731 H 0.0 **** 0.06
25149 H -0.2119845545348653 50.281766754926224 106.90751395641107 H 0.0 **** 0.06
25150 H 0.18406780595171313 48.74023628507619 107.70519099456916 H 0.0 **** 0.06
25151 C 56.61575672128586 0.10856218367275616 78.84644387168674 C 0.0 **** -0.24
25152 H 56.17010785223863 0.05089118380301372 79.83917070905122 H 0.0 **** 0.06
25153 H 56.10441258213612 0.8748266586240199 78.26279203924564 H 0.0 **** 0.06
25154 H 56.51792950115967 -0.8550189139780002 78.3469313661431 H 0.0 **** 0.06
25155 H 57.671555747769645 0.36456701105594647 78.93679557938239 H 0.0 **** 0.06
25156 C 105.73734816643343 94.38150778962458 114.50405548302619 C 0.0 **** -0.24
25157 H 105.56240588172165 93.80466289932745 113.59570937139698 H 0.0 **** 0.06
25158 H 105.31437791386918 93.85105772241883 115.35784668991973 H 0.0 **** 0.06
25159 H 105.26234296310605 95.35822665339678 114.41143371222343 H 0.0 **** 0.06
25160 H 106.8095123956511 94.5116214796566 114.65169955492745 H 0.0 **** 0.06
25161 C 122.13321607008669 95.7542689140361 82.42126163706698 C 0.0 **** -0.24
25162 H 121.8710982341785 95.09895820801196 83.25252311578649 H 0.0 **** 0.06
25163 H 122.17220752566215 96.78585549948217 82.77072442008233 H 0.0 **** 0.06
25164 H 121.38228484099054 95.66348143921063 81.63752679868807 H 0.0 **** 0.06
25165 H 123.10700996141159 95.46680552786657 82.0262797864099 H 0.0 **** 0.06
25166 C 50.71360668278599 2.1037905583302745 22.37649006227292 C 0.0 **** -0.24
25167 H 50.6995619631127 2.655414197316361 21.43618446958999 H 0.0 **** 0.06
25168 H 51.20203768489391 1.1407398239573183 22.224526362548886 H 0.0 **** 0.06
25169 H 49.69219405046526 1.943203558410687 22.718630982688296 H 0.0 **** 0.06
25170 H 51.26278917199102 2.676021728107713 23.124315283943133 H 0.0 **** 0.06
25171 C 9.145484930521473 22.36384853295536 39.437380917700004 C 0.0 **** -0.24
25172 H 9.908510780516323 21.846917391131953 40.01915338556233 H 0.0 **** 0.06
25173 H 8.79244372132618 23.233146335518065 39.992604054797 H 0.0 **** 0.06
25174 H 8.311445201098294 21.687506759928112 39.25168230641497 H 0.0 **** 0.06
25175 H 9.570480333227263 22.686771804550496 38.4861816608249 H 0.0 **** 0.06
25176 C 85.67827803716312 108.33510254192043 63.526379303712815 C 0.0 **** -0.24
25177 H 85.38232042773814 109.18981755201872 64.13481486060874 H 0.0 **** 0.06
25178 H 85.72495095364735 108.6342788404528 62.479064796942964 H 0.0 **** 0.06
25179 H 84.94589506043445 107.535486817113 63.64317575454322 H 0.0 **** 0.06
25180 H 86.6570023028143 107.98133513947707 63.84874220962769 H 0.0 **** 0.06
25181 C 100.68863307413322 95.88716761211145 109.87010784941941 C 0.0 **** -0.24
25182 H 100.12521396537623 96.32518023172057 109.04657625383801 H 0.0 **** 0.06
25183 H 101.70658679346549 95.67850322824309 109.54302254786879 H 0.0 **** 0.06
25184 H 100.21005526378731 94.95991988218404 110.1854131051214 H 0.0 **** 0.06
25185 H 100.71104302493644 96.58616372372303 110.70648260315727 H 0.0 **** 0.06
25186 C 82.35817270924893 38.80106260280351 2.5326024377574754 C 0.0 **** -0.24
25187 H 83.43471193687795 38.95677926578483 2.4537154622095727 H 0.0 **** 0.06
25188 H 81.85385353801036 39.76680093623651 2.576695078285553 H 0.0 **** 0.06
25189 H 82.13894733569424 38.23447432107815 3.436568875136402 H 0.0 **** 0.06
25190 H 82.0077652395862 38.24697279787472 1.6621252519663017 H 0.0 **** 0.06
25191 C 98.61562637596413 38.467489763127304 77.9447305232028 C 0.0 **** -0.24
25192 H 98.75129421989689 37.4026588104262 77.75368920529178 H 0.0 **** 0.06
25193 H 99.10853636086122 38.73473797351949 78.87971696015313 H 0.0 **** 0.06
25194 H 97.55064812333327 38.69026673798712 78.01840055738995 H 0.0 **** 0.06
25195 H 99.0509781444047 39.040920676542584 77.12701404786844 H 0.0 **** 0.06
25196 C 52.90737632879704 85.78481288630621 60.83462542297781 C 0.0 **** -0.24
25197 H 53.193618375465974 85.06354529215902 60.06870437167328 H 0.0 **** 0.06
25198 H 53.76067267952912 86.41936254165577 61.07270000315614 H 0.0 **** 0.06
25199 H 52.58658342989088 85.25386137853233 61.73138343484587 H 0.0 **** 0.06
25200 H 52.08761295796346 86.40080754466301 60.46424440748848 H 0.0 **** 0.06
25201 C 89.15908908420005 74.74151202267214 69.25546671205706 C 0.0 **** -0.24
25202 H 89.16006204064149 74.09168157066125 68.38007712234207 H 0.0 **** 0.06
25203 H 89.53238890140082 74.1892701470936 70.1181796739865 H 0.0 **** 0.06
25204 H 88.14191249084377 75.08227190546057 69.45392845788427 H 0.0 **** 0.06
25205 H 89.79978588356897 75.60288479397502 69.0693270497226 H 0.0 **** 0.06
25206 C 76.17039484655585 35.095711514080165 55.1551591576832 C 0.0 **** -0.24
25207 H 76.25362745564438 35.144734006148155 54.0702990311225 H 0.0 **** 0.06
25208 H 75.30552903993774 34.48910172504179 55.42615591606065 H 0.0 **** 0.06
25209 H 76.04828352555754 36.10250260778315 55.555943448994626 H 0.0 **** 0.06
25210 H 77.07307607592124 34.64712442875722 55.56893765938506 H 0.0 **** 0.06
25211 C 71.65303102583078 23.086789252001097 61.56575801343931 C 0.0 **** -0.24
25212 H 71.37434076047269 24.14054397780245 61.59424005888329 H 0.0 **** 0.06
25213 H 70.97965419477877 22.5164125146664 62.20712733252594 H 0.0 **** 0.06
25214 H 72.67734676114675 22.971954052987087 61.91997349668226 H 0.0 **** 0.06
25215 H 71.57781381707196 22.719277768910445 60.54204409584197 H 0.0 **** 0.06
25216 C 51.446908063249566 127.39616630181922 77.66318939434419 C 0.0 **** -0.24
25217 H 52.5004138219559 127.6413636741179 77.7964834890146 H 0.0 **** 0.06
25218 H 51.04720915705286 127.95912938306434 76.81835748604983 H 0.0 **** 0.06
25219 H 50.89603211354523 127.65631349082982 78.56731362504333 H 0.0 **** 0.06
25220 H 51.3451481161394 126.32860051633118 77.46956438268947 H 0.0 **** 0.06
25221 C 97.57881508143424 69.15400160963935 79.14340322601129 C 0.0 **** -0.24
25222 H 96.73726208551044 69.5728037223875 79.69583589470639 H 0.0 **** 0.06
25223 H 97.35085197845312 68.12607738285118 78.85955267229971 H 0.0 **** 0.06
25224 H 98.46860609491327 69.16865429362298 79.77261043067463 H 0.0 **** 0.06
25225 H 97.75771751721642 69.7480429552507 78.24764867195691 H 0.0 **** 0.06
25226 C 41.47433257160486 0.04965303321005443 84.64568648065199 C 0.0 **** -0.24
25227 H 40.65593631153722 0.5897036453082798 84.16964303275495 H 0.0 **** 0.06
25228 H 41.08964496045394 -0.5257469217110309 85.48730501869335 H 0.0 **** 0.06
25229 H 42.220963261149436 0.7599628121442841 85.00134238546482 H 0.0 **** 0.06
25230 H 41.9324975660727 -0.6253298502275086 83.9227034786253 H 0.0 **** 0.06
25231 C 55.30122586070169 74.8869215894888 38.27660886920819 C 0.0 **** -0.24
25232 H 55.11981901866591 74.49282918380169 39.27733824878984 H 0.0 **** 0.06
25233 H 54.61252884563521 75.7079422262733 38.079383214563705 H 0.0 **** 0.06
25234 H 55.14602410640535 74.09681886236754 37.54241711925012 H 0.0 **** 0.06
25235 H 56.32759332203915 75.24849066911324 38.20936946762588 H 0.0 **** 0.06
25236 C 30.596547669946858 60.285647572937194 36.65507549905337 C 0.0 **** -0.24
25237 H 30.023569157735977 59.7399606752532 35.90579259495294 H 0.0 **** 0.06
25238 H 30.002518471170433 61.121681439099234 37.027673537093875 H 0.0 **** 0.06
25239 H 31.514055648696626 60.66443563937807 36.205491089251296 H 0.0 **** 0.06
25240 H 30.843789642005902 59.61905831126802 37.480152179059104 H 0.0 **** 0.06
25241 C 60.62488288349755 95.53065119441715 112.84041136117486 C 0.0 **** -0.24
25242 H 60.82473432463968 94.78461712070212 113.60940812229154 H 0.0 **** 0.06
25243 H 60.89855169181226 95.1276886430125 111.86430319876678 H 0.0 **** 0.06
25244 H 61.21341432354711 96.42590420737035 113.04159851008421 H 0.0 **** 0.06
25245 H 59.56446700936931 95.78258370820248 112.84612498023182 H 0.0 **** 0.06
25246 C 73.36238592922172 17.861782296326858 68.52198183542765 C 0.0 **** -0.24
25247 H 72.63212114165134 17.10218580253501 68.24477447406446 H 0.0 **** 0.06
25248 H 73.31488741109209 18.03511813752459 69.59727903736126 H 0.0 **** 0.06
25249 H 73.14049049381694 18.789552573915813 67.99460606955819 H 0.0 **** 0.06
25250 H 74.36119921313855 17.520375918592485 68.2523967665037 H 0.0 **** 0.06
25251 C 87.02584620892907 110.13417988819087 116.672413213402 C 0.0 **** -0.24
25252 H 86.52845280918498 109.50104430420264 117.40716800863414 H 0.0 **** 0.06
25253 H 87.1430480873139 109.58403688254184 115.73822965645024 H 0.0 **** 0.06
25254 H 88.00660822818875 110.42551533895319 117.04759444215786 H 0.0 **** 0.06
25255 H 86.42440959081554 111.02667966905126 116.49569116017834 H 0.0 **** 0.06
25256 C 101.25103848337216 12.724783858741503 73.41548950095876 C 0.0 **** -0.24
25257 H 102.19118644909443 12.181586157123377 73.31902428822067 H 0.0 **** 0.06
25258 H 100.83375241877212 12.906872027723821 72.42440283023353 H 0.0 **** 0.06
25259 H 101.43149051706185 13.676167845888827 73.91565050340554 H 0.0 **** 0.06
25260 H 100.54850389309395 12.132507071526007 74.00226105525547 H 0.0 **** 0.06
25261 C 124.76493396846041 85.46077404148127 87.0478917477779 C 0.0 **** -0.24
25262 H 124.48965809597445 84.54105378267752 86.53093782909781 H 0.0 **** 0.06
25263 H 124.4716655953057 85.39061337744795 88.09535659811098 H 0.0 **** 0.06
25264 H 124.2553411343572 86.3045963748803 86.58267084811871 H 0.0 **** 0.06
25265 H 125.84358029592653 85.60531296062362 86.98074925670369 H 0.0 **** 0.06
25266 C 18.10348665737871 75.30972104257786 28.03092077926575 C 0.0 **** -0.24
25267 H 17.714837056708177 76.30581288313381 28.241172928875685 H 0.0 **** 0.06
25268 H 18.588962195258944 74.91447907376516 28.922826446066075 H 0.0 **** 0.06
25269 H 18.826292640029607 75.36597830905849 27.216877714701525 H 0.0 **** 0.06
25270 H 17.281870057114986 74.6527449777139 27.743015997105765 H 0.0 **** 0.06
25271 C 61.08591743219172 30.233025931003496 38.903144462581935 C 0.0 **** -0.24
25272 H 59.99697285063044 30.279232803881754 38.92026462284761 H 0.0 **** 0.06
25273 H 61.4631066979331 30.188769030188524 39.92498450394652 H 0.0 **** 0.06
25274 H 61.478762058691586 31.12208069457246 38.40866770802441 H 0.0 **** 0.06
25275 H 61.404067417947985 29.34418001531614 38.359533461626995 H 0.0 **** 0.06
25276 C 75.26209429400251 28.932493706419166 6.576206965390099 C 0.0 **** -0.24
25277 H 75.98170275018839 28.181195019643525 6.2496744741482075 H 0.0 **** 0.06
25278 H 74.37997433738093 28.89272634538699 5.935579521642467 H 0.0 **** 0.06
25279 H 75.71461192764082 29.92161609854449 6.5113292967826055 H 0.0 **** 0.06
25280 H 74.97173930563346 28.732293340594055 7.607713766205677 H 0.0 **** 0.06
25281 C 49.58819983212342 58.155618903424056 93.4686567254052 C 0.0 **** -0.24
25282 H 49.02403558250319 57.255358700726404 93.22567993861963 H 0.0 **** 0.06
25283 H 49.41338683639162 58.42335054345871 94.51165038094035 H 0.0 **** 0.06
25284 H 49.26503765332359 58.973251829879416 92.82421814637007 H 0.0 **** 0.06
25285 H 50.651495667772494 57.96986182766068 93.31419057209388 H 0.0 **** 0.06
25286 C 111.60524834304196 79.86087534236779 57.61307061242678 C 0.0 **** -0.24
25287 H 112.2065691958206 80.55967263446831 58.19549065243723 H 0.0 **** 0.06
25288 H 111.49861360951499 78.92635924117226 58.165664739166715 H 0.0 **** 0.06
25289 H 112.09703739534444 79.66517192051569 56.66071820179576 H 0.0 **** 0.06
25290 H 110.62075052122466 80.29084685688903 57.4324053706103 H 0.0 **** 0.06
25291 C 6.567002362863263 90.15246463323538 118.85334116355031 C 0.0 **** -0.24
25292 H 6.205531179399742 89.34719338586535 118.21411565511485 H 0.0 **** 0.06
25293 H 7.453239298226833 90.60139478118714 118.40476308734857 H 0.0 **** 0.06
25294 H 6.820434608520031 89.75054670699737 119.83464212731727 H 0.0 **** 0.06
25295 H 5.7893268816638965 90.90868486690559 118.96059915429043 H 0.0 **** 0.06
25296 C 19.144800529081067 2.585029385060409 130.46609770533942 C 0.0 **** -0.24
25297 H 19.92331596819065 3.3472847056730757 130.4994595726525 H 0.0 **** 0.06
25298 H 19.44184797109132 1.735988895007722 131.08259473950213 H 0.0 **** 0.06
25299 H 19.00381679835573 2.2552547687832316 129.43693895052783 H 0.0 **** 0.06
25300 H 18.21188073134347 3.002072534354511 130.84551191015223 H 0.0 **** 0.06
25301 C 21.59017459250515 52.05136025085855 125.95989767121986 C 0.0 **** -0.24
25302 H 22.241125921679213 52.876225291425925 125.66836112251454 H 0.0 **** 0.06
25303 H 20.991775037637126 52.34819073746925 126.82171502444143 H 0.0 **** 0.06
25304 H 22.198466051603077 51.18442211565585 126.21911819306118 H 0.0 **** 0.06
25305 H 20.9314145482291 51.79778081331182 125.12858713233638 H 0.0 **** 0.06
25306 C 9.60184201167289 62.955796627891914 81.55078124006454 C 0.0 **** -0.24
25307 H 9.70355647664313 62.56195164636756 82.56175390809855 H 0.0 **** 0.06
25308 H 10.562461193430387 62.89500343645324 81.03948148988411 H 0.0 **** 0.06
25309 H 9.279487000767546 63.99627280611048 81.59769683273687 H 0.0 **** 0.06
25310 H 8.86164263523959 62.3711550941826 81.00606889828587 H 0.0 **** 0.06
25311 C 103.70943509578262 93.505035705651 87.07292411147967 C 0.0 **** -0.24
25312 H 103.26750265963457 92.70833015271474 87.67121204157408 H 0.0 **** 0.06
25313 H 104.77843246885615 93.56360564704511 87.27933556108059 H 0.0 **** 0.06
25314 H 103.23700460145878 94.45320820869973 87.32552792423635 H 0.0 **** 0.06
25315 H 103.5558841610978 93.29235683686946 86.01426204958526 H 0.0 **** 0.06
25316 C 25.193011509669986 60.894437032488355 105.92149292182066 C 0.0 **** -0.24
25317 H 24.662243969798283 61.8217077770276 106.13730593254468 H 0.0 **** 0.06
25318 H 26.26723411528431 61.066867903983734 105.98938157029077 H 0.0 **** 0.06
25319 H 24.941059438426066 60.557635334493796 104.91557230953386 H 0.0 **** 0.06
25320 H 24.900385921570404 60.13137591657818 106.64286694251807 H 0.0 **** 0.06
25321 C 127.01527693104569 48.10118439466058 42.66748887385609 C 0.0 **** -0.24
25322 H 126.8596314549645 48.831031038095745 43.4622453503585 H 0.0 **** 0.06
25323 H 126.57980520526527 47.14558159681434 42.959850206448834 H 0.0 **** 0.06
25324 H 128.0839967551136 47.97567441109639 42.493742934851525 H 0.0 **** 0.06
25325 H 126.53810415683884 48.45388636311408 41.75324879331697 H 0.0 **** 0.06
25326 C 113.31630781538895 38.763766383431175 112.51132016508825 C 0.0 **** -0.24
25327 H 113.83067354067224 39.41667232698995 113.21558938157419 H 0.0 **** 0.06
25328 H 114.01539669342777 38.441559486560664 111.73887600013774 H 0.0 **** 0.06
25329 H 112.48973557132194 39.30491840855754 112.05095913836277 H 0.0 **** 0.06
25330 H 112.93061591606208 37.89134868501242 113.03934442614919 H 0.0 **** 0.06
25331 C 36.249441945114484 25.619719048723823 18.442233778382956 C 0.0 **** -0.24
25332 H 36.44941261405353 25.044474239975756 19.345461619861396 H 0.0 **** 0.06
25333 H 35.86597499315741 24.956910501586066 17.66618904738914 H 0.0 **** 0.06
25334 H 37.172571938387875 26.086313199529798 18.09764501973683 H 0.0 **** 0.06
25335 H 35.51093416696335 26.39151961819539 18.658854659606448 H 0.0 **** 0.06
25336 C 73.33970748890366 69.9555936685902 105.7489836218416 C 0.0 **** -0.24
25337 H 74.33498863292166 70.32082243074686 106.0014234026363 H 0.0 **** 0.06
25338 H 73.28649544986902 68.88457777201117 105.94286209890203 H 0.0 **** 0.06
25339 H 73.13971843645797 70.14552881057847 104.6947021313535 H 0.0 **** 0.06
25340 H 72.59790563035213 70.4723725828197 106.35838337525013 H 0.0 **** 0.06
25341 C 65.02698148818638 61.22835175663798 125.21499238456457 C 0.0 **** -0.24
25342 H 65.60440537845575 60.30491924805639 125.24919002571065 H 0.0 **** 0.06
25343 H 65.35297429246522 61.890379860448974 126.01671734173001 H 0.0 **** 0.06
25344 H 63.96840046782506 60.999432881091906 125.3404311212 H 0.0 **** 0.06
25345 H 65.18110706283049 61.7179305159986 124.25302541238818 H 0.0 **** 0.06
25346 C 113.28095524227697 87.63752714257751 34.42994011414645 C 0.0 **** -0.24
25347 H 113.971811785661 87.86762335689363 33.618145496171245 H 0.0 **** 0.06
25348 H 113.05449613053074 88.54920683233362 34.98294996274885 H 0.0 **** 0.06
25349 H 113.73818562832307 86.90959506285239 35.10048821661278 H 0.0 **** 0.06
25350 H 112.36097246393823 87.22314109815679 34.018180066313214 H 0.0 **** 0.06
25351 C 111.98821825534694 89.49394584666516 18.466179449731584 C 0.0 **** -0.24
25352 H 112.56487090564963 89.90888962931149 17.63918919784318 H 0.0 **** 0.06
25353 H 112.6411860928705 88.89460570887115 19.100680730799027 H 0.0 **** 0.06
25354 H 111.1884203601071 88.86602553784536 18.071126301541767 H 0.0 **** 0.06
25355 H 111.55635830135839 90.30604924601002 19.051312370491416 H 0.0 **** 0.06
25356 C 26.5676238265047 122.80071126149988 90.390046951796 C 0.0 **** -0.24
25357 H 27.118293409153807 122.0725559921158 89.79526940179093 H 0.0 **** 0.06
25358 H 25.498916164010723 122.69113880298246 90.19943632558721 H 0.0 **** 0.06
25359 H 26.883737095820834 123.80680491997697 90.11686871893515 H 0.0 **** 0.06
25360 H 26.767059907168175 122.63112279123466 91.44805473044012 H 0.0 **** 0.06
25361 C 88.05116355875674 71.19744863172397 28.922316383957202 C 0.0 **** -0.24
25362 H 86.97722987768398 71.04592757571723 29.02756013354935 H 0.0 **** 0.06
25363 H 88.55216112979804 70.90289204968414 29.845016975374605 H 0.0 **** 0.06
25364 H 88.25141399590723 72.2497518097974 28.7210373605497 H 0.0 **** 0.06
25365 H 88.42469156314351 70.59265516691895 28.09614076630499 H 0.0 **** 0.06
25366 C 43.820461687159195 84.40439154822315 26.78654886278919 C 0.0 **** -0.24
25367 H 44.057362332137075 84.3522354578792 27.849123700337337 H 0.0 **** 0.06
25368 H 42.738383743410225 84.41661475165454 26.655181448171582 H 0.0 **** 0.06
25369 H 44.23967291655137 83.53602358388417 26.277813644972404 H 0.0 **** 0.06
25370 H 44.247379939191916 85.31471172220597 26.363950310349452 H 0.0 **** 0.06
25371 C 128.48811190651372 57.42065908065821 6.4009714672871105 C 0.0 **** -0.24
25372 H 128.7240619144569 56.3929233369513 6.676230038268773 H 0.0 **** 0.06
25373 H 127.45552179866829 57.64196840290343 6.673279002469798 H 0.0 **** 0.06
25374 H 128.61585047545714 57.546783141933616 5.325488741836491 H 0.0 **** 0.06
25375 H 129.15697295495522 58.10057146870405 6.927968119810199 H 0.0 **** 0.06
25376 C 70.73865936733058 42.755585560702976 104.677094283768 C 0.0 **** -0.24
25377 H 69.89999790363757 43.17117687473426 105.23637178293775 H 0.0 **** 0.06
25378 H 71.1391103538589 41.893821413346934 105.21039906788802 H 0.0 **** 0.06
25379 H 71.51517357017897 43.512751268385465 104.57228394854745 H 0.0 **** 0.06
25380 H 70.39667565654734 42.445263615402865 103.68941369847315 H 0.0 **** 0.06
25381 C 120.72310210106843 128.2117161806379 30.08135454498057 C 0.0 **** -0.24
25382 H 120.98168821842535 129.24922903612168 30.2921619071804 H 0.0 **** 0.06
25383 H 119.83837012277871 127.9340474513804 30.655950907519042 H 0.0 **** 0.06
25384 H 121.55534773053864 127.56608115002484 30.360478261494507 H 0.0 **** 0.06
25385 H 120.51574380865435 128.09802369119132 29.01721355892539 H 0.0 **** 0.06
25386 C 17.124609118316954 119.64313474477679 11.402986998033498 C 0.0 **** -0.24
25387 H 17.739033577807305 119.7196673894392 12.300517417649928 H 0.0 **** 0.06
25388 H 16.602495916368184 118.68568304731544 11.400844761903699 H 0.0 **** 0.06
25389 H 17.7609052490562 119.71266121670568 10.519963868102025 H 0.0 **** 0.06
25390 H 16.396824177515818 120.45396482552168 11.391625580692732 H 0.0 **** 0.06
25391 C 112.51014977793933 63.89951918134702 109.46121872071127 C 0.0 **** -0.24
25392 H 113.06945649635905 64.8105485236371 109.24933436785783 H 0.0 **** 0.06
25393 H 111.45482625593016 64.14230618256394 109.58912202988719 H 0.0 **** 0.06
25394 H 112.89240795424463 63.443508541417 110.37401190941686 H 0.0 **** 0.06
25395 H 112.62458885815569 63.201745341437885 108.63081405053056 H 0.0 **** 0.06
25396 C 50.27820126930618 73.38605464564314 100.40637451354604 C 0.0 **** -0.24
25397 H 50.324910147981086 72.68106242717398 101.23682003446355 H 0.0 **** 0.06
25398 H 51.10312073398774 74.09408710785495 100.48497713480121 H 0.0 **** 0.06
25399 H 49.331269816049115 73.92487702406447 100.4415418989457 H 0.0 **** 0.06
25400 H 50.352939003694814 72.84208394637646 99.4644474179591 H 0.0 **** 0.06
25401 C 44.484807016306576 92.45785478659057 98.65188638739721 C 0.0 **** -0.24
25402 H 45.458054657003345 92.78870171120369 98.2916104922307 H 0.0 **** 0.06
25403 H 44.18699877159216 93.06517904508112 99.50758730279925 H 0.0 **** 0.06
25404 H 44.5452108998216 91.41120950319191 98.95274113079486 H 0.0 **** 0.06
25405 H 43.747327664884864 92.56382490625482 97.85537456083894 H 0.0 **** 0.06
25406 C 102.21489708436984 21.872760415951944 74.83667798026534 C 0.0 **** -0.24
25407 H 102.68811145578954 22.763541519907136 75.25001520647254 H 0.0 **** 0.06
25408 H 102.80277025781906 20.994348510370514 75.10139307146426 H 0.0 **** 0.06
25409 H 102.16012205475356 21.96162837370261 73.7518067264403 H 0.0 **** 0.06
25410 H 101.20817759660267 21.774599086825845 75.24410865285313 H 0.0 **** 0.06
25411 C 49.08328744608039 116.35616583362987 120.59049769794126 C 0.0 **** -0.24
25412 H 48.60063832199482 115.42121769681374 120.87390241673319 H 0.0 **** 0.06
25413 H 49.180694348496274 116.99472322429142 121.46931616935456 H 0.0 **** 0.06
25414 H 48.4785128046781 116.8640100256758 119.83826205767667 H 0.0 **** 0.06
25415 H 50.07133725961836 116.14609745342003 120.18199768179221 H 0.0 **** 0.06
25416 C 2.811439058579424 80.0659522198317 31.108340989091744 C 0.0 **** -0.24
25417 H 2.5933165081296714 81.08181525295474 31.435466705953502 H 0.0 **** 0.06
25418 H 3.092003377043792 79.45910331214976 31.9697059422229 H 0.0 **** 0.06
25419 H 3.633254778785073 80.08282986381249 30.391964985015136 H 0.0 **** 0.06
25420 H 1.926656870906232 79.63875080333605 30.636128206283217 H 0.0 **** 0.06
25421 C 110.90433510390102 63.892063619041096 51.87085364161513 C 0.0 **** -0.24
25422 H 110.67148145599589 63.22107926598632 51.04499496382405 H 0.0 **** 0.06
25423 H 110.1268060184039 64.65099306318166 51.95375147168241 H 0.0 **** 0.06
25424 H 111.86443649425212 64.37418563863173 51.68732670127977 H 0.0 **** 0.06
25425 H 110.95649035349982 63.32169162587613 52.798889285162915 H 0.0 **** 0.06
25426 C 73.51716961776258 54.508326750741304 75.32903098077601 C 0.0 **** -0.24
25427 H 72.81409856019441 55.02630071048887 74.67622965478206 H 0.0 **** 0.06
25428 H 74.00785209198631 53.70961031500386 74.77361115361361 H 0.0 **** 0.06
25429 H 72.97938685252268 54.08468175326982 76.17735114206417 H 0.0 **** 0.06
25430 H 74.26570572480782 55.21420928267554 75.68923374245298 H 0.0 **** 0.06
25431 C 91.2510338779984 103.31431924163155 84.26942545578095 C 0.0 **** -0.24
25432 H 90.52264216397856 103.14939763798967 85.06432855075889 H 0.0 **** 0.06
25433 H 90.86747931844693 102.90540165290415 83.33469834492385 H 0.0 **** 0.06
25434 H 92.18667067391155 102.8186017876069 84.52691026131549 H 0.0 **** 0.06
25435 H 91.425362603288 104.38425049969902 84.15374878652061 H 0.0 **** 0.06
25436 C 110.54977699962924 51.47810565262289 103.11421410667097 C 0.0 **** -0.24
25437 H 111.21902029500589 50.99173945449549 103.82490101492529 H 0.0 **** 0.06
25438 H 109.54923151683934 51.05689807336795 103.21085450906664 H 0.0 **** 0.06
25439 H 110.91710839484634 51.31697722535239 102.10127349596408 H 0.0 **** 0.06
25440 H 110.51580143178782 52.54798585199583 103.32254689540862 H 0.0 **** 0.06
25441 C 84.71132981822275 102.7614468916567 18.085065467036145 C 0.0 **** -0.24
25442 H 84.99888391240022 103.46236527479905 18.869535736403463 H 0.0 **** 0.06
25443 H 84.00537055316312 102.03498212487816 18.487276751340886 H 0.0 **** 0.06
25444 H 85.59860185856846 102.24282125512619 17.719870548516013 H 0.0 **** 0.06
25445 H 84.2451560328617 103.30689784521977 17.264633434596362 H 0.0 **** 0.06
25446 C 130.69737460321673 27.826956736201424 106.47470373269437 C 0.0 **** -0.24
25447 H 130.0364677504206 27.02148611674437 106.15502942295757 H 0.0 **** 0.06
25448 H 130.1462731627549 28.766917646689166 106.48342810627923 H 0.0 **** 0.06
25449 H 131.53620521098833 27.90414413559853 105.78233039746692 H 0.0 **** 0.06
25450 H 131.07103947917668 27.61464674888026 107.47593819440618 H 0.0 **** 0.06
25451 C 71.08878600687532 57.83129280269871 109.73647901686779 C 0.0 **** -0.24
25452 H 70.21421814414035 57.624990256628564 109.11914377029117 H 0.0 **** 0.06
25453 H 70.81100422688274 58.511589175696855 110.54275608222333 H 0.0 **** 0.06
25454 H 71.86512870044834 58.29007407723425 109.1245360380658 H 0.0 **** 0.06
25455 H 71.46138135444892 56.899119070721056 110.15947929087699 H 0.0 **** 0.06
25456 C 108.05749527314563 32.96256292939694 45.863128691761204 C 0.0 **** -0.24
25457 H 107.72223185262692 33.6156182782735 46.669400152001764 H 0.0 **** 0.06
25458 H 109.13103448719205 33.08201718652816 45.721031396260685 H 0.0 **** 0.06
25459 H 107.53766406245792 33.22695292259439 44.9416575978389 H 0.0 **** 0.06
25460 H 107.83750533585783 31.925987776598717 46.11971373471196 H 0.0 **** 0.06
25461 C 25.765008399061713 58.0122900240778 37.549751564139655 C 0.0 **** -0.24
25462 H 26.756894729975556 58.38444882729419 37.80391634606744 H 0.0 **** 0.06
25463 H 25.59501960218759 57.05923436091712 38.050991228459424 H 0.0 **** 0.06
25464 H 25.695258484524686 57.87367956017164 36.47066418073277 H 0.0 **** 0.06
25465 H 25.0125774528278 58.73202175276219 37.87206721188838 H 0.0 **** 0.06
25466 C 79.95188741216845 0.58861740278752 129.84376134832627 C 0.0 **** -0.24
25467 H 80.11225252365546 1.350042886503104 129.0808185565761 H 0.0 **** 0.06
25468 H 79.97811033179136 1.0522542518592672 130.83019215346638 H 0.0 **** 0.06
25469 H 80.73695244592193 -0.16498640913289364 129.7752726357633 H 0.0 **** 0.06
25470 H 78.98153011574533 0.11751451703082694 129.6892032047461 H 0.0 **** 0.06
25471 C 103.49821880309413 79.95345383171386 55.18453834602144 C 0.0 **** -0.24
25472 H 104.11138868297634 80.53907466072451 54.49846728721852 H 0.0 **** 0.06
25473 H 102.46614384693662 80.3014227245201 55.135360744975486 H 0.0 **** 0.06
25474 H 103.87573196845885 80.0735727788361 56.20071293705544 H 0.0 **** 0.06
25475 H 103.5418589502369 78.90138884588039 54.90311826173681 H 0.0 **** 0.06
25476 C 11.312904002643222 70.97516417804042 6.01893838820871 C 0.0 **** -0.24
25477 H 10.725720662505523 71.87104554667769 6.219848190014488 H 0.0 **** 0.06
25478 H 12.332918390099394 71.12318556493881 6.373952195365177 H 0.0 **** 0.06
25479 H 11.325522219672791 70.78149051935401 4.9469431952696254 H 0.0 **** 0.06
25480 H 10.867353676723326 70.12582477447677 6.537058999311228 H 0.0 **** 0.06
25481 C 129.77247750575162 65.57856543340495 8.265983523608213 C 0.0 **** -0.24
25482 H 129.3373294162876 65.00256274571174 7.448791648793758 H 0.0 **** 0.06
25483 H 129.12231007199793 65.51681936770456 9.139492128004406 H 0.0 **** 0.06
25484 H 129.87395442201165 66.61993186844904 7.961959180753325 H 0.0 **** 0.06
25485 H 130.75344912233277 65.17424696825645 8.513152831936878 H 0.0 **** 0.06
25486 C 114.7593263840947 122.72481093490899 92.30861172452487 C 0.0 **** -0.24
25487 H 115.59402991896569 122.0835444665206 92.02413529576803 H 0.0 **** 0.06
25488 H 113.86708463139196 122.11553122007969 92.45610886942389 H 0.0 **** 0.06
25489 H 114.57579130756211 123.45237962814825 91.51793217611491 H 0.0 **** 0.06
25490 H 115.0013923057834 123.24759367091363 93.23403961582973 H 0.0 **** 0.06
25491 C 74.67197163247278 84.38588731245524 26.121451333838536 C 0.0 **** -0.24
25492 H 74.33526662043853 83.60726390168624 26.806131409503692 H 0.0 **** 0.06
25493 H 73.9015552257607 85.1535067949601 26.036137387197527 H 0.0 **** 0.06
25494 H 74.86234157363073 83.95063045206147 25.14039770451933 H 0.0 **** 0.06
25495 H 75.59029620646663 84.83369085394257 26.50420916917477 H 0.0 **** 0.06
25496 C 120.21817958500128 10.517673413088659 88.3806627039952 C 0.0 **** -0.24
25497 H 120.01191714649718 9.60674415659929 87.81869814291412 H 0.0 **** 0.06
25498 H 120.23243799013301 10.291384233938487 89.44688049698817 H 0.0 **** 0.06
25499 H 119.44188583463057 11.255369066357673 88.17451063788837 H 0.0 **** 0.06
25500 H 121.18715402081591 10.917835812595541 88.08149704592057 H 0.0 **** 0.06
25501 C 15.506214544828339 97.14695511905904 100.63194321402977 C 0.0 **** -0.24
25502 H 14.600174385681623 97.51550433400197 100.15156925353264 H 0.0 **** 0.06
25503 H 15.842176002621787 96.24046353264144 100.12768988965915 H 0.0 **** 0.06
25504 H 15.299087283314638 96.92571074142974 101.6786722422061 H 0.0 **** 0.06
25505 H 16.285242631359626 97.90768243899348 100.56928753700296 H 0.0 **** 0.06
25506 C 9.462193063570172 115.5524677842665 121.79913474605962 C 0.0 **** -0.24
25507 H 8.62768134675349 115.26089614676205 121.16247033717158 H 0.0 **** 0.06
25508 H 9.902775092564038 114.66312356208887 122.25003918637059 H 0.0 **** 0.06
25509 H 9.105409558930699 116.21889459619958 122.58452975105266 H 0.0 **** 0.06
25510 H 10.214125533015544 116.06712825698679 121.20071796452913 H 0.0 **** 0.06
25511 C 126.77601094135574 59.05430577291558 73.38675250521342 C 0.0 **** -0.24
25512 H 127.58696415057986 59.48543113787535 72.79962194964153 H 0.0 **** 0.06
25513 H 126.77121686575751 57.97156688122277 73.25932799494095 H 0.0 **** 0.06
25514 H 125.82530921542607 59.464787449663916 73.04707255416591 H 0.0 **** 0.06
25515 H 126.92086913468879 59.295901551819114 74.43934882329361 H 0.0 **** 0.06
25516 C 60.57849398732864 116.97119482033878 126.10774473213661 C 0.0 **** -0.24
25517 H 60.25216940585128 115.94126504228333 125.9601220995576 H 0.0 **** 0.06
25518 H 61.02920985398984 117.34495120666638 125.18884550415403 H 0.0 **** 0.06
25519 H 61.31070289721268 117.00768041663177 126.91425224774807 H 0.0 **** 0.06
25520 H 59.71967283399326 117.58972068594517 126.36940764221745 H 0.0 **** 0.06
25521 C 65.78546901478047 121.12226198799009 104.20449419139348 C 0.0 **** -0.24
25522 H 64.84278824146307 121.47287870689965 104.62555521869722 H 0.0 **** 0.06
25523 H 66.47914557407869 121.95909705510442 104.12142562494202 H 0.0 **** 0.06
25524 H 65.60661454671786 120.69927183199705 103.21564844422478 H 0.0 **** 0.06
25525 H 66.21239314832125 120.35923003042802 104.85505968698148 H 0.0 **** 0.06
25526 C 118.64175427959447 16.632526363070745 85.71820594432509 C 0.0 **** -0.24
25527 H 119.46181423843672 15.926477994579777 85.58700441505067 H 0.0 **** 0.06
25528 H 119.04005190305881 17.646374478193536 85.76726222691005 H 0.0 **** 0.06
25529 H 118.11220065309908 16.40541814248422 86.64336878020376 H 0.0 **** 0.06
25530 H 117.9544297190503 16.55183050008813 84.87608920955381 H 0.0 **** 0.06
25531 C 75.6203911482987 94.24242611511914 2.471457600716075 C 0.0 **** -0.24
25532 H 74.53254666728427 94.29569667932293 2.425937125282715 H 0.0 **** 0.06
25533 H 76.04814050008284 95.01666953830835 1.832617855835263 H 0.0 **** 0.06
25534 H 75.95116279668818 93.26305041905573 2.1250895050585115 H 0.0 **** 0.06
25535 H 75.95004187101142 94.39559806379378 3.498842727906279 H 0.0 **** 0.06
25536 C 45.96002723138977 90.26580058515685 18.756990566720148 C 0.0 **** -0.24
25537 H 46.836349226421504 90.78587962164852 19.14532945162756 H 0.0 **** 0.06
25538 H 46.248212567336196 89.66169826705135 17.896753933472212 H 0.0 **** 0.06
25539 H 45.20998627727931 90.9961337984384 18.454698669572004 H 0.0 **** 0.06
25540 H 45.547569576261935 89.62195702223545 19.533150705919773 H 0.0 **** 0.06
25541 C 118.63995915966817 117.72815713179548 8.639410109219341 C 0.0 **** -0.24
25542 H 117.70379701626435 117.37363085020658 8.209326433323156 H 0.0 **** 0.06
25543 H 118.64979198299343 117.52009771265497 9.70981009122363 H 0.0 **** 0.06
25544 H 118.73159358787565 118.80203056867708 8.477137396409205 H 0.0 **** 0.06
25545 H 119.4759326576808 117.2164255646388 8.161776750333274 H 0.0 **** 0.06
25546 C 111.74711450670617 25.87177381030429 111.00841140030525 C 0.0 **** -0.24
25547 H 111.3184090500656 24.999455342421626 110.51572939745142 H 0.0 **** 0.06
25548 H 111.48310516079522 26.770393314199396 110.45094434683301 H 0.0 **** 0.06
25549 H 112.8315269997883 25.771946673976032 111.04491495587922 H 0.0 **** 0.06
25550 H 111.35438278364907 25.944400769607938 112.02382398960054 H 0.0 **** 0.06
25551 C 11.288957040496356 37.413057171401306 87.94105003356492 C 0.0 **** -0.24
25552 H 11.401550728174016 37.438779780311904 89.02479422103656 H 0.0 **** 0.06
25553 H 12.147470609029853 37.89604405528945 87.47507840796504 H 0.0 **** 0.06
25554 H 10.37794937393926 37.94119614804919 87.65820420051821 H 0.0 **** 0.06
25555 H 11.22715543284329 36.377442060192834 87.60688635253203 H 0.0 **** 0.06
25556 C 109.46579295416237 67.47663455101849 27.20949737839308 C 0.0 **** -0.24
25557 H 109.33366455165535 68.54705191830521 27.363569285118672 H 0.0 **** 0.06
25558 H 108.68064059822137 66.93325937918452 27.735771739220723 H 0.0 **** 0.06
25559 H 110.43891283409549 67.17169683148352 27.592612346971805 H 0.0 **** 0.06
25560 H 109.41014064257388 67.25437954608839 26.14321782881629 H 0.0 **** 0.06
25561 C 42.79502395560482 85.69076401639037 109.17819081337727 C 0.0 **** -0.24
25562 H 42.97798743718096 84.71628266980181 108.72504629172192 H 0.0 **** 0.06
25563 H 41.80844820789966 85.69580469239418 109.64219015179036 H 0.0 **** 0.06
25564 H 42.84000235118535 86.46286989919858 108.41140413567987 H 0.0 **** 0.06
25565 H 43.55356901622693 85.88585718376285 109.93694543504031 H 0.0 **** 0.06
25566 C 72.67532547404295 55.378364393186914 79.62076588969265 C 0.0 **** -0.24
25567 H 72.37052112948749 55.25012919355626 80.65934497133998 H 0.0 **** 0.06
25568 H 73.61227116598593 54.8464958245539 79.44874498681665 H 0.0 **** 0.06
25569 H 72.81464751107407 56.438538179407644 79.41106052289385 H 0.0 **** 0.06
25570 H 71.90344518025734 54.975896161454784 78.96363904676639 H 0.0 **** 0.06
25571 C 26.369010778488615 90.46131112698987 76.91668855197832 C 0.0 **** -0.24
25572 H 26.29702703684407 91.45284308125275 76.47023679848951 H 0.0 **** 0.06
25573 H 25.371243961327423 90.10457139777697 77.17133259423201 H 0.0 **** 0.06
25574 H 26.978444267001038 90.5122778292718 77.81844995967111 H 0.0 **** 0.06
25575 H 26.82911116163416 89.77551014450734 76.20429526257556 H 0.0 **** 0.06
25576 C 66.39510493550748 3.8279078214690756 58.45140413002892 C 0.0 **** -0.24
25577 H 66.2214989011197 3.938019723962171 57.38058209563776 H 0.0 **** 0.06
25578 H 65.95227406780955 4.672715201430439 58.97959142726384 H 0.0 **** 0.06
25579 H 67.46726139629291 3.7990121435314173 58.64462164948213 H 0.0 **** 0.06
25580 H 65.93799200520073 2.9009942423153134 58.79931577792084 H 0.0 **** 0.06
25581 C 26.029303166362695 14.17769011549342 82.67666995421553 C 0.0 **** -0.24
25582 H 26.975781328349427 14.651546021577815 82.9376261933065 H 0.0 **** 0.06
25583 H 26.222797485279443 13.279095189138843 82.09140801310383 H 0.0 **** 0.06
25584 H 25.426674156922132 14.8714810612679 82.0903118020949 H 0.0 **** 0.06
25585 H 25.49316914042467 13.910753713122688 83.58708453122563 H 0.0 **** 0.06
25586 C 16.86440462298566 93.16846831186402 98.30471479879087 C 0.0 **** -0.24
25587 H 16.204770092313026 93.99385288380044 98.03336784278899 H 0.0 **** 0.06
25588 H 16.879697849972388 92.43565322145982 97.4983447872214 H 0.0 **** 0.06
25589 H 16.498492507960748 92.6979727095423 99.21753334807254 H 0.0 **** 0.06
25590 H 17.872177409030883 93.548974773866 98.4707036684058 H 0.0 **** 0.06
25591 C 76.47065155258954 37.475218794963226 52.01518653326383 C 0.0 **** -0.24
25592 H 76.98895874713247 36.64943915107315 52.502843293777715 H 0.0 **** 0.06
25593 H 75.94912003803151 38.070248659115805 52.76536774490722 H 0.0 **** 0.06
25594 H 75.75011314460012 37.079022501686936 51.29885948863878 H 0.0 **** 0.06
25595 H 77.19522224011638 38.10015337761591 51.49312661785905 H 0.0 **** 0.06
25596 C 10.81319263655476 95.6645555692057 13.831473439104002 C 0.0 **** -0.24
25597 H 10.741938021426876 95.48610342861065 12.75856660245097 H 0.0 **** 0.06
25598 H 10.240749737087043 94.90447338896692 14.364130677675064 H 0.0 **** 0.06
25599 H 10.411523888707762 96.65062094094372 14.061989591394081 H 0.0 **** 0.06
25600 H 11.857447354823563 95.61622508111552 14.139175701637612 H 0.0 **** 0.06
25601 C 100.6737299958237 48.20232932096002 104.66464615382614 C 0.0 **** -0.24
25602 H 100.60453820410557 49.24420932789573 104.35225696581905 H 0.0 **** 0.06
25603 H 99.70122456260916 47.723318130747714 104.5481258961758 H 0.0 **** 0.06
25604 H 100.97914643963948 48.15640359052259 105.710344071899 H 0.0 **** 0.06
25605 H 101.40947507747522 47.686035626788765 104.0483974701777 H 0.0 **** 0.06
25606 C 105.9625293370995 80.50248285641253 77.39373158283964 C 0.0 **** -0.24
25607 H 105.17851294385517 79.79830885860179 77.11420738407125 H 0.0 **** 0.06
25608 H 106.92845584198452 80.11689563102605 77.06688456691742 H 0.0 **** 0.06
25609 H 105.96927442865194 80.62771834455744 78.47671591923027 H 0.0 **** 0.06
25610 H 105.77426488316284 81.46405570361028 76.9167603105031 H 0.0 **** 0.06
25611 C 25.70144175821497 79.49125673332026 109.5590344509633 C 0.0 **** -0.24
25612 H 26.014757401808176 79.5933349334091 110.59804061995546 H 0.0 **** 0.06
25613 H 25.904128615591418 80.42028619164734 109.02562109632473 H 0.0 **** 0.06
25614 H 24.63354162584743 79.2758866539723 109.5214776722934 H 0.0 **** 0.06
25615 H 26.253747188164454 78.67552493835126 109.09191149952248 H 0.0 **** 0.06
25616 C 127.84797151264713 75.93741684908153 6.759404448357088 C 0.0 **** -0.24
25617 H 128.40906163238114 75.03574276261102 6.515432836358059 H 0.0 **** 0.06
25618 H 128.20791032724296 76.76578581393412 6.149368083960496 H 0.0 **** 0.06
25619 H 127.98330759749388 76.17561121102273 7.814142817549396 H 0.0 **** 0.06
25620 H 126.78878240156811 75.77079201182605 6.558560813971894 H 0.0 **** 0.06
25621 C 32.81225113242607 7.898854240450987 129.00613016882468 C 0.0 **** -0.24
25622 H 33.67007185631235 8.054631865764236 128.35127945734155 H 0.0 **** 0.06
25623 H 32.44283158675779 8.863515890969609 129.35698438787836 H 0.0 **** 0.06
25624 H 33.11230270312677 7.29100086144274 129.85899576592902 H 0.0 **** 0.06
25625 H 32.02358822082448 7.386253104278069 128.4542683892676 H 0.0 **** 0.06
25626 C 91.0422072423195 121.42193499957136 75.08851843838643 C 0.0 **** -0.24
25627 H 91.97276390444114 120.9121514018774 74.84023348951754 H 0.0 **** 0.06
25628 H 90.3879745231383 120.73902066353946 75.63234942563727 H 0.0 **** 0.06
25629 H 90.5492334558505 121.7454322416499 74.17188828522973 H 0.0 **** 0.06
25630 H 91.25858070874798 122.29046238328152 75.71081514708305 H 0.0 **** 0.06
25631 C 130.34335091686023 5.961397815513845 29.367877118053435 C 0.0 **** -0.24
25632 H 131.18574297445994 5.4565126171960365 28.89648030887045 H 0.0 **** 0.06
25633 H 129.53381582711052 5.248467133235046 29.523409217231958 H 0.0 **** 0.06
25634 H 129.99724044393085 6.770204529968829 28.723536550785653 H 0.0 **** 0.06
25635 H 130.6566044219398 6.3704069816551545 30.328082395325666 H 0.0 **** 0.06
25636 C 30.091147182202363 63.45253120371602 16.369171465338354 C 0.0 **** -0.24
25637 H 30.83298605367405 64.17511474707148 16.029360383587118 H 0.0 **** 0.06
25638 H 30.2667674739412 62.494378354603754 15.88136409480245 H 0.0 **** 0.06
25639 H 29.092697615549127 63.811250627702336 16.117299754508053 H 0.0 **** 0.06
25640 H 30.170575660674444 63.33105799929956 17.449526894972564 H 0.0 **** 0.06
25641 C 118.58406727470285 56.55039197257453 90.97854754107946 C 0.0 **** -0.24
25642 H 119.13488302316986 56.191496926120024 90.10863727340882 H 0.0 **** 0.06
25643 H 118.5651035726167 57.640241187309044 90.97202521258286 H 0.0 **** 0.06
25644 H 119.07500876380556 56.200970626749566 91.88781028986001 H 0.0 **** 0.06
25645 H 117.56397519538575 56.16806353415501 90.94598116376797 H 0.0 **** 0.06
25646 C 10.496305233349517 87.56699573415557 51.561798612701054 C 0.0 **** -0.24
25647 H 9.4776268438425 87.94934626183016 51.63425508830039 H 0.0 **** 0.06
25648 H 11.182242789524025 88.2720577935178 52.03130540575353 H 0.0 **** 0.06
25649 H 10.76383383336713 87.44321270936913 50.51243705544023 H 0.0 **** 0.06
25650 H 10.559330571408651 86.60423184026908 52.068512472264146 H 0.0 **** 0.06
25651 C 129.3084533561372 128.35378524481848 32.33030683927018 C 0.0 **** -0.24
25652 H 129.3610484944557 129.2100704331582 31.658353816924347 H 0.0 **** 0.06
25653 H 129.39885205922494 128.69586331154758 33.361603681755184 H 0.0 **** 0.06
25654 H 130.12243271922182 127.66419808103988 32.10437174307276 H 0.0 **** 0.06
25655 H 128.354161810645 127.84447675670789 32.19762317135056 H 0.0 **** 0.06
25656 C 59.612238708016946 64.88661548502103 9.070477918261872 C 0.0 **** -0.24
25657 H 59.47714492631495 64.17739937720003 8.2539225640474 H 0.0 **** 0.06
25658 H 58.92442125865679 65.72295326002106 8.94175026274786 H 0.0 **** 0.06
25659 H 60.63794861377494 65.2558008990712 9.064089908495362 H 0.0 **** 0.06
25660 H 59.40853615705302 64.3912287555541 10.019440347003467 H 0.0 **** 0.06
25661 C 29.094546360432275 46.91514310865492 21.689636149021965 C 0.0 **** -0.24
25662 H 28.7730409863496 47.82667336304655 21.186112225156833 H 0.0 **** 0.06
25663 H 30.153666850732918 46.74733949629396 21.495262332715598 H 0.0 **** 0.06
25664 H 28.51695483402716 46.0699976882068 21.31353937246815 H 0.0 **** 0.06
25665 H 28.932839755242412 47.01663800883151 22.763228381560836 H 0.0 **** 0.06
25666 C 75.38270643680977 112.7859607878175 38.16811843160326 C 0.0 **** -0.24
25667 H 74.45725005071222 113.07968674447635 38.66367975166733 H 0.0 **** 0.06
25668 H 76.01586147494041 113.66374293210781 38.0317777579269 H 0.0 **** 0.06
25669 H 75.15203566513836 112.34953412759147 37.1967450806558 H 0.0 **** 0.06
25670 H 75.90593575579787 112.05261869484951 38.78197667231805 H 0.0 **** 0.06
25671 C 83.44018718578883 11.204700253509145 94.60885608718704 C 0.0 **** -0.24
25672 H 83.68801885933009 11.545832222239056 93.60366758926511 H 0.0 **** 0.06
25673 H 84.21581694293704 11.529535757964538 95.30365961588888 H 0.0 **** 0.06
25674 H 83.37597263412327 10.117152684918665 94.61692965474245 H 0.0 **** 0.06
25675 H 82.48206827869726 11.628021108265642 94.90986450308986 H 0.0 **** 0.06
25676 C 3.1608691236748427 129.2440270598532 29.081430820205398 C 0.0 **** -0.24
25677 H 3.34998161331805 129.3267470508314 30.151904716380116 H 0.0 **** 0.06
25678 H 3.6720647904597286 130.0519685173143 28.55860577875756 H 0.0 **** 0.06
25679 H 2.0886925071721407 129.31148907281798 28.896180535752386 H 0.0 **** 0.06
25680 H 3.531838779900113 128.2851790254993 28.720947302261592 H 0.0 **** 0.06
25681 C 103.9337920466335 63.50553463330593 71.78330710064253 C 0.0 **** -0.24
25682 H 104.03026118689334 62.54696756938509 71.27259836984061 H 0.0 **** 0.06
25683 H 104.28465730733936 64.30262691040203 71.127818777579 H 0.0 **** 0.06
25684 H 104.5312274659378 63.4928259965464 72.69497803214577 H 0.0 **** 0.06
25685 H 102.88715960445896 63.6768978570303 72.0365771020989 H 0.0 **** 0.06
25686 C 26.315028477651055 15.053879868767211 38.00918528488677 C 0.0 **** -0.24
25687 H 26.424619942457866 14.391943662665597 38.86788232549043 H 0.0 **** 0.06
25688 H 26.752390031067094 14.581250868056657 37.12826286289908 H 0.0 **** 0.06
25689 H 26.82774312311892 15.99534176114625 38.20784252770977 H 0.0 **** 0.06
25690 H 25.25742051043298 15.246452493587554 37.83088889493672 H 0.0 **** 0.06
25691 C 2.1269623944689044 7.091540443264023 130.0679861555758 C 0.0 **** -0.24
25692 H 2.5877216295423295 7.959389298239074 129.5980939777848 H 0.0 **** 0.06
25693 H 1.0527520092145437 7.103614513593811 129.87788130872403 H 0.0 **** 0.06
25694 H 2.3066792287523583 7.122184493995164 131.14268531236465 H 0.0 **** 0.06
25695 H 2.5593795003260595 6.180464487869685 129.65336154517325 H 0.0 **** 0.06
25696 C 0.6429742048541698 5.2959691768573975 22.893176299555478 C 0.0 **** -0.24
25697 H -0.24753388750332306 5.805165073109521 23.262122587441354 H 0.0 **** 0.06
25698 H 0.3945827319472528 4.262671396198243 22.646658636510566 H 0.0 **** 0.06
25699 H 1.4145381355536415 5.309858463171366 23.663232583166014 H 0.0 **** 0.06
25700 H 1.0096550999944043 5.8046349459758915 22.00216750632851 H 0.0 **** 0.06
25701 C 113.36697012628254 67.92721005324609 10.572172830012448 C 0.0 **** -0.24
25702 H 113.87295763029168 68.85940537201353 10.82637174520164 H 0.0 **** 0.06
25703 H 112.2956573032252 68.0384024184356 10.742412708132179 H 0.0 **** 0.06
25704 H 113.75225420724759 67.12270541940285 11.198191927980702 H 0.0 **** 0.06
25705 H 113.54650702802915 67.69031575910148 9.523903773607572 H 0.0 **** 0.06
25706 C 23.7004002268647 64.68399298425132 69.0696284974879 C 0.0 **** -0.24
25707 H 23.346235761399626 64.5115013006687 70.08598602505388 H 0.0 **** 0.06
25708 H 24.715611194009192 64.29961596958489 68.96748392700421 H 0.0 **** 0.06
25709 H 23.694003815585212 65.75345798013021 68.86044162514875 H 0.0 **** 0.06
25710 H 23.045300984520708 64.17205614586595 68.36520526594855 H 0.0 **** 0.06
25711 C 25.393209117105208 121.5733518880761 100.99157285836512 C 0.0 **** -0.24
25712 H 26.119440026214278 122.13209394606235 100.40001007221524 H 0.0 **** 0.06
25713 H 24.983850614900938 122.21957636472087 101.76871124326802 H 0.0 **** 0.06
25714 H 25.884526299901324 120.71616498618903 101.45305803503861 H 0.0 **** 0.06
25715 H 24.588667657103855 121.22639490995095 100.34463525907967 H 0.0 **** 0.06
25716 C 61.246305824937295 43.30837598452603 76.75469051469355 C 0.0 **** -0.24
25717 H 60.38333024762942 43.23858056010389 76.09248720614373 H 0.0 **** 0.06
25718 H 61.607393756990334 42.30596973954753 76.98693554279916 H 0.0 **** 0.06
25719 H 60.95613270708181 43.81308838919411 77.67573360408203 H 0.0 **** 0.06
25720 H 62.0373386807276 43.874519083128575 76.26324319900584 H 0.0 **** 0.06
25721 C 25.90439796682432 114.17787594835688 99.58383509379217 C 0.0 **** -0.24
25722 H 26.315496611676885 113.97062346135296 98.59567680797649 H 0.0 **** 0.06
25723 H 24.837714030340564 114.38670777696966 99.49786907406212 H 0.0 **** 0.06
25724 H 26.410139172702394 115.04337986372896 100.01245649076046 H 0.0 **** 0.06
25725 H 26.05606977675042 113.31236564865357 100.2289072292882 H 0.0 **** 0.06
25726 C 18.66201284813119 78.93146730681623 106.10347775937859 C 0.0 **** -0.24
25727 H 18.54316689181409 80.01436937028882 106.06608478314814 H 0.0 **** 0.06
25728 H 19.442108125693395 78.67642216962486 106.82182300386592 H 0.0 **** 0.06
25729 H 18.941155516391085 78.56252339398807 105.1171171939805 H 0.0 **** 0.06
25730 H 17.72135853100321 78.47400720638686 106.4102352976999 H 0.0 **** 0.06
25731 C 55.60330436216179 44.51804505456022 92.41352555176542 C 0.0 **** -0.24
25732 H 56.350427374479295 44.96910819810219 93.06698997023807 H 0.0 **** 0.06
25733 H 54.68467403546805 45.10378279337786 92.45452707088725 H 0.0 **** 0.06
25734 H 55.40053878389716 43.49930370528389 92.7423044956571 H 0.0 **** 0.06
25735 H 55.97805625520351 44.50129594059429 91.39051191095706 H 0.0 **** 0.06
25736 C 43.9107589274376 61.59863479002502 70.60916420432895 C 0.0 **** -0.24
25737 H 43.307653304378846 60.69166963591175 70.56773616154138 H 0.0 **** 0.06
25738 H 43.44484479924904 62.372660032272506 69.99720296062364 H 0.0 **** 0.06
25739 H 44.910571564167185 61.3881909573156 70.22987468971266 H 0.0 **** 0.06
25740 H 43.978869015992586 61.943194229108826 71.6411992319477 H 0.0 **** 0.06
25741 C 41.11475857159587 40.48758851553912 58.04382616265222 C 0.0 **** -0.24
25742 H 41.656291091227445 39.67916829891683 58.53407375268439 H 0.0 **** 0.06
25743 H 41.19118159413597 41.39377840275302 58.64560680273705 H 0.0 **** 0.06
25744 H 40.06485051534378 40.20973266596167 57.93767146563708 H 0.0 **** 0.06
25745 H 41.54377255918439 40.667291042143084 57.058419937211966 H 0.0 **** 0.06
25746 C 29.86081542186173 15.591074565117538 102.8367513791099 C 0.0 **** -0.24
25747 H 30.25637950991191 15.733963366716921 103.84309098206575 H 0.0 **** 0.06
25748 H 28.786481901726717 15.412251681357162 102.89112408091162 H 0.0 **** 0.06
25749 H 30.348784179737777 14.733581169208378 102.37276100190539 H 0.0 **** 0.06
25750 H 30.051282634003144 16.48365972666258 102.2420738550561 H 0.0 **** 0.06
25751 C 47.98083028508586 123.38301710503187 37.37270910006072 C 0.0 **** -0.24
25752 H 47.09208092896108 123.13131982840767 36.79338831343807 H 0.0 **** 0.06
25753 H 47.690614662946246 123.9648438499695 38.247831964764714 H 0.0 **** 0.06
25754 H 48.662395134577366 123.9683277673718 36.7561158714214 H 0.0 **** 0.06
25755 H 48.476413224038765 122.46596479684875 37.693185543665265 H 0.0 **** 0.06
25756 C 58.49108675595204 95.16468690717619 14.984132144923166 C 0.0 **** -0.24
25757 H 58.714185122100844 94.27354589649053 14.397667931720505 H 0.0 **** 0.06
25758 H 58.311762350420736 96.00531582402164 14.313530717261983 H 0.0 **** 0.06
25759 H 59.33595970502938 95.39186950724533 15.634901905843321 H 0.0 **** 0.06
25760 H 57.60342352126298 94.98722309346564 15.591062972598309 H 0.0 **** 0.06
25761 C 6.380428904894259 5.746404093771218 53.61471240800438 C 0.0 **** -0.24
25762 H 5.9998248217756185 6.704001068554305 53.96938692059638 H 0.0 **** 0.06
25763 H 6.402248490951095 5.7466309739312464 52.52436136675118 H 0.0 **** 0.06
25764 H 5.730428500107394 4.944866089217101 53.96527161393732 H 0.0 **** 0.06
25765 H 7.388863884698807 5.59060882153949 53.9982058294176 H 0.0 **** 0.06
25766 C 97.7533389442417 116.79406722735837 95.59998642429699 C 0.0 **** -0.24
25767 H 97.84144202881726 117.69198067254445 94.9879686242187 H 0.0 **** 0.06
25768 H 98.10529409430228 117.00608846827845 96.6098136678963 H 0.0 **** 0.06
25769 H 98.35532236171724 115.99687715593751 95.16505152492948 H 0.0 **** 0.06
25770 H 96.70908787205963 116.48108410397958 95.6373605894162 H 0.0 **** 0.06
25771 C 32.315410559921034 14.350217440601511 117.64132381360514 C 0.0 **** -0.24
25772 H 31.297683446127067 14.566502711379712 117.96656170459036 H 0.0 **** 0.06
25773 H 32.28652529785032 13.725766786428267 116.7481007055463 H 0.0 **** 0.06
25774 H 32.84661510278903 13.826057522179312 118.43511567742193 H 0.0 **** 0.06
25775 H 32.82952990624523 15.284586948974393 117.41591885996434 H 0.0 **** 0.06
25776 C 2.089881074497441 114.35225209737769 127.50642485556578 C 0.0 **** -0.24
25777 H 1.077567994226456 113.9519199240608 127.45227837769929 H 0.0 **** 0.06
25778 H 2.0670310380722867 115.3342344114904 127.9800366556263 H 0.0 **** 0.06
25779 H 2.4972535666047406 114.44405424506914 126.49958599650407 H 0.0 **** 0.06
25780 H 2.716411807803638 113.68032248438186 128.0915412622101 H 0.0 **** 0.06
25781 C 64.30499278182765 77.22031413755943 6.096964773740808 C 0.0 **** -0.24
25782 H 64.82558018497838 76.64179553027711 6.860646311576659 H 0.0 **** 0.06
25783 H 64.88901728357422 77.21337880428948 5.175945867728046 H 0.0 **** 0.06
25784 H 64.18026176004491 78.24670946479722 6.44096947415801 H 0.0 **** 0.06
25785 H 63.326898702972926 76.77771363461605 5.910531961170989 H 0.0 **** 0.06
25786 C 82.51596985062497 68.0949972928734 117.04246319849139 C 0.0 **** -0.24
25787 H 83.28699755818434 67.41229156569689 116.6830932995505 H 0.0 **** 0.06
25788 H 82.48397948367534 68.97587321749528 116.40006551983399 H 0.0 **** 0.06
25789 H 82.74794281449488 68.3978494785863 118.06370831500078 H 0.0 **** 0.06
25790 H 81.54867513142554 67.59369133184255 117.0226468485665 H 0.0 **** 0.06
25791 C 23.586160360678605 130.46745769521056 3.388040664447715 C 0.0 **** -0.24
25792 H 24.137291430941964 130.07104360764012 4.240943881198007 H 0.0 **** 0.06
25793 H 22.53376672991032 130.19750651698564 3.478889484524643 H 0.0 **** 0.06
25794 H 23.991241106471158 130.0477896729358 2.466700409827979 H 0.0 **** 0.06
25795 H 23.68355282361059 131.55294818762255 3.3661185920120147 H 0.0 **** 0.06
25796 C 10.708552706219692 114.77511022865207 66.06816910561105 C 0.0 **** -0.24
25797 H 9.940096914294983 114.91231923515244 66.82913288373192 H 0.0 **** 0.06
25798 H 11.688719774041914 114.74198170144041 66.54359047176297 H 0.0 **** 0.06
25799 H 10.674569580967699 115.6067423854339 65.36410263603528 H 0.0 **** 0.06
25800 H 10.530938369403586 113.84039095645602 65.53583224921351 H 0.0 **** 0.06
25801 C 24.194852618474926 76.67919509750146 40.98434595490909 C 0.0 **** -0.24
25802 H 23.985959664841516 77.59319264432048 41.54038254874919 H 0.0 **** 0.06
25803 H 24.537061480638812 75.90579251875607 41.67288868071964 H 0.0 **** 0.06
25804 H 24.96909917883437 76.87332501942751 40.24251021086582 H 0.0 **** 0.06
25805 H 23.28699978427005 76.34385519405114 40.48284236250251 H 0.0 **** 0.06
25806 C 18.876508683780543 3.8663069983072944 71.37980807580433 C 0.0 **** -0.24
25807 H 18.780400421096985 3.105118648767359 72.1545635289036 H 0.0 **** 0.06
25808 H 18.6373001728264 3.4289038232309963 70.41032767943418 H 0.0 **** 0.06
25809 H 19.898254274625636 4.243928075097898 71.36705415465624 H 0.0 **** 0.06
25810 H 18.188073024510935 4.685154346902863 71.58940017516923 H 0.0 **** 0.06
25811 C 89.88911905720101 42.10962549274288 43.08526341100213 C 0.0 **** -0.24
25812 H 89.33956926740615 42.26799603082921 44.012879301530546 H 0.0 **** 0.06
25813 H 90.90791455408183 41.79600392381249 43.316343064140455 H 0.0 **** 0.06
25814 H 89.914709365168 43.03850284683824 42.51518930492492 H 0.0 **** 0.06
25815 H 89.39547694811472 41.33649556520473 42.49721494089667 H 0.0 **** 0.06
25816 C 75.06720764184786 118.3353299810893 61.120658686056856 C 0.0 **** -0.24
25817 H 75.95199666996962 118.9138364545295 60.85570758834069 H 0.0 **** 0.06
25818 H 74.95222454042585 118.32468534606156 62.204912851243364 H 0.0 **** 0.06
25819 H 75.17967579113537 117.31414449800374 60.75679252792497 H 0.0 **** 0.06
25820 H 74.1866647742927 118.78870793580131 60.66523342284637 H 0.0 **** 0.06
25821 C 15.178744503664152 106.23807615875342 25.372803561450517 C 0.0 **** -0.24
25822 H 15.898626422592951 106.87885026586568 25.88123644063156 H 0.0 **** 0.06
25823 H 14.875197635349998 105.43181399243792 26.04186871910499 H 0.0 **** 0.06
25824 H 15.637706116087134 105.81499384897296 24.479334447515136 H 0.0 **** 0.06
25825 H 14.305190979619145 106.82549248657023 25.090679921477197 H 0.0 **** 0.06
25826 C 18.568591396201356 105.5661953756145 122.18353041767482 C 0.0 **** -0.24
25827 H 17.657546206957548 105.7608582253794 121.61733210550113 H 0.0 **** 0.06
25828 H 18.432832544798714 104.6724609844566 122.79338687513875 H 0.0 **** 0.06
25829 H 18.784100476912315 106.41742185654468 122.82924380370238 H 0.0 **** 0.06
25830 H 19.399191281513154 105.413000116175 121.49349955513004 H 0.0 **** 0.06
25831 C 12.991911967997606 10.215183048182602 124.00863877956809 C 0.0 **** -0.24
25832 H 12.954185164503166 11.247939143959638 124.35526106325653 H 0.0 **** 0.06
25833 H 12.352666772601907 9.597217259642868 124.63979595274857 H 0.0 **** 0.06
25834 H 14.017185251497459 9.851137613428513 124.06182710537223 H 0.0 **** 0.06
25835 H 12.642257540888949 10.166127049500677 122.97710797788372 H 0.0 **** 0.06
25836 C 101.3066780063197 2.414859870598548 41.11418047895127 C 0.0 **** -0.24
25837 H 101.88660043819993 1.6708646087954833 40.56631042204015 H 0.0 **** 0.06
25838 H 101.49149588657994 3.4024090624142502 40.689779142644284 H 0.0 **** 0.06
25839 H 101.60471496962975 2.4074028377860373 42.162736555060334 H 0.0 **** 0.06
25840 H 100.2459099886964 2.1771092758787063 41.03583939557903 H 0.0 **** 0.06
25841 C 16.482231986590648 32.93639719370009 113.42465911498674 C 0.0 **** -0.24
25842 H 15.641573339417675 32.29563769620046 113.15850732421474 H 0.0 **** 0.06
25843 H 17.095758738742347 32.438301158734646 114.17526601882734 H 0.0 **** 0.06
25844 H 16.10712127183558 33.87705446670594 113.8282298441877 H 0.0 **** 0.06
25845 H 17.08287472515849 33.135896873944034 112.53749756190712 H 0.0 **** 0.06
25846 C 112.31158621182973 32.33301333084188 29.35305505072907 C 0.0 **** -0.24
25847 H 112.62862421616458 32.17499404609454 28.322384754176667 H 0.0 **** 0.06
25848 H 112.28967366262154 31.376644078678993 29.876436571605744 H 0.0 **** 0.06
25849 H 111.31659734499729 32.776108741000854 29.363590202856393 H 0.0 **** 0.06
25850 H 113.01300707187985 33.00250643591322 29.850387131105343 H 0.0 **** 0.06
25851 C 7.806676805975172 37.13851078788173 12.694507210016923 C 0.0 **** -0.24
25852 H 8.196503334123108 36.788016058011536 11.73910511452334 H 0.0 **** 0.06
25853 H 8.385792205086844 37.998667268387955 13.029461857776482 H 0.0 **** 0.06
25854 H 7.882443808036427 36.33837096345102 13.431566335841154 H 0.0 **** 0.06
25855 H 6.762211997028544 37.42670190728026 12.577052572540481 H 0.0 **** 0.06
25856 C 56.10485848408169 115.01813999475974 81.05709320517785 C 0.0 **** -0.24
25857 H 56.62419409740437 114.82109339842157 81.9950818211194 H 0.0 **** 0.06
25858 H 56.810459260482816 114.94830120351003 80.22915748048452 H 0.0 **** 0.06
25859 H 55.6746435430656 116.02001090482656 81.08424713131639 H 0.0 **** 0.06
25860 H 55.31035019146171 114.2849181769659 80.92157287703228 H 0.0 **** 0.06
25861 C 118.30896118516898 115.81962967405667 120.69888635296635 C 0.0 **** -0.24
25862 H 117.31698145229271 115.38051016806676 120.58568376436477 H 0.0 **** 0.06
25863 H 118.36005990348818 116.7518570237423 120.13601995663709 H 0.0 **** 0.06
25864 H 119.05854611094125 115.12393116563837 120.32048372638695 H 0.0 **** 0.06
25865 H 118.49812010078978 116.01950505507713 121.7531122071268 H 0.0 **** 0.06
25866 C 28.37220921500043 103.15598447813832 112.61568494674684 C 0.0 **** -0.24
25867 H 29.174195102713 103.10474918740553 113.35122622989108 H 0.0 **** 0.06
25868 H 28.49909704213411 102.35614211703623 111.8849652731995 H 0.0 **** 0.06
25869 H 28.405920549046726 104.12000782989327 112.10877375569152 H 0.0 **** 0.06
25870 H 27.41164098300422 103.04164884131691 113.11774519029684 H 0.0 **** 0.06
25871 C 17.34485250486486 51.88652196150683 125.60209296772251 C 0.0 **** -0.24
25872 H 17.94993276311064 52.19000776985662 126.45777681386703 H 0.0 **** 0.06
25873 H 16.2901706621181 51.91515873189975 125.87631483166305 H 0.0 **** 0.06
25874 H 17.616936523504194 50.873314234041956 125.30679508137727 H 0.0 **** 0.06
25875 H 17.524031104181347 52.56850952677625 124.77055554128205 H 0.0 **** 0.06
25876 C 24.62264704393541 7.691589729066777 55.34242945254299 C 0.0 **** -0.24
25877 H 24.154988418768525 8.644064301149854 55.0917441796841 H 0.0 **** 0.06
25878 H 25.522863924153093 7.559933540854615 54.74165934936214 H 0.0 **** 0.06
25879 H 23.92537182211059 6.879372077109792 55.13736065522434 H 0.0 **** 0.06
25880 H 24.886618034845064 7.685483700286738 56.40074821102827 H 0.0 **** 0.06
25881 C 39.182989762847 95.83691691641883 82.69453794983005 C 0.0 **** -0.24
25882 H 39.630785660801536 95.97961385146095 83.67769401745076 H 0.0 **** 0.06
25883 H 38.09644330139608 95.87303567224097 82.78155960355002 H 0.0 **** 0.06
25884 H 39.483169028710364 94.86810975217855 82.29578296989646 H 0.0 **** 0.06
25885 H 39.520727833199516 96.62637043126358 82.02324322743081 H 0.0 **** 0.06
25886 C 108.54064174244013 90.73926303799483 82.54516143007059 C 0.0 **** -0.24
25887 H 108.09151564298793 90.8451336643859 81.55804209404867 H 0.0 **** 0.06
25888 H 108.56855906079193 89.68513697385119 82.82035283779346 H 0.0 **** 0.06
25889 H 107.94752864990107 91.29100234923264 83.27529575215902 H 0.0 **** 0.06
25890 H 109.55473641551953 91.13748299258928 82.52674168767409 H 0.0 **** 0.06
25891 C 130.6383837366524 130.15550308417778 66.24804286916887 C 0.0 **** -0.24
25892 H 130.70762703347592 129.20472476879428 66.77593811810144 H 0.0 **** 0.06
25893 H 131.632209546953 130.46363152067516 65.9238136666741 H 0.0 **** 0.06
25894 H 130.22252503719267 130.9107609303599 66.91427372100915 H 0.0 **** 0.06
25895 H 129.99150156732304 130.0415207651899 65.37808656617193 H 0.0 **** 0.06
25896 C 128.22020312690125 29.42255965578238 45.92546711530189 C 0.0 **** -0.24
25897 H 127.41179071850013 30.145589052747447 46.03573659795008 H 0.0 **** 0.06
25898 H 128.414926571361 29.25519658441752 44.86611832727736 H 0.0 **** 0.06
25899 H 127.93228137062059 28.4813564273946 46.39488917665318 H 0.0 **** 0.06
25900 H 129.11976335479466 29.807234501633083 46.40489497145813 H 0.0 **** 0.06
25901 C 109.95793055706525 90.75702338817027 76.42537953635087 C 0.0 **** -0.24
25902 H 109.0265929773305 91.05895021535474 75.94618231436392 H 0.0 **** 0.06
25903 H 110.2907669656442 91.54663494309901 77.09982823385569 H 0.0 **** 0.06
25904 H 110.7183043493693 90.58368496536886 75.66453401934453 H 0.0 **** 0.06
25905 H 109.79362897471117 89.84081646611375 76.99133205998935 H 0.0 **** 0.06
25906 C 53.51666810774573 9.616375072263445 68.51664954576836 C 0.0 **** -0.24
25907 H 52.728598519471674 9.293518918884018 67.83671008506701 H 0.0 **** 0.06
25908 H 54.48458864495025 9.518738973501765 68.02392898031894 H 0.0 **** 0.06
25909 H 53.5008279492762 8.994415086055668 69.41230707009726 H 0.0 **** 0.06
25910 H 53.35373157842541 10.657106733210668 68.79459324690623 H 0.0 **** 0.06
25911 C 93.52383767746073 61.364800238748046 59.60146498373497 C 0.0 **** -0.24
25912 H 94.46145596351178 60.86693061491968 59.35546656046178 H 0.0 **** 0.06
25913 H 93.71163368986277 62.15068322890846 60.33434298090104 H 0.0 **** 0.06
25914 H 92.82460088823998 60.63980935508863 60.01772762315021 H 0.0 **** 0.06
25915 H 93.0989295726304 61.80420426057617 58.69903068000153 H 0.0 **** 0.06
25916 C 15.385818354862124 41.11332607832853 119.90223038276137 C 0.0 **** -0.24
25917 H 15.419273032293177 40.27098476796929 119.21209031967739 H 0.0 **** 0.06
25918 H 16.24632053636168 41.06943500403261 120.57144272441533 H 0.0 **** 0.06
25919 H 14.467544236161075 41.0679304786602 120.48700324829885 H 0.0 **** 0.06
25920 H 15.412180582235464 42.045851961408836 119.33849553403499 H 0.0 **** 0.06
25921 C 31.68651584757903 71.29726099267113 120.67357665453193 C 0.0 **** -0.24
25922 H 32.15486007651928 70.45949197868907 121.19136357928326 H 0.0 **** 0.06
25923 H 32.36574616222293 71.67852075539385 119.9109190268727 H 0.0 **** 0.06
25924 H 31.46228507147783 72.08719842018884 121.39040849726841 H 0.0 **** 0.06
25925 H 30.76232143320786 70.96067451187996 120.20216517622731 H 0.0 **** 0.06
25926 C 24.20906307105261 96.79309296306795 87.28193209479113 C 0.0 **** -0.24
25927 H 24.16699497818506 95.93779484280921 87.9550559878962 H 0.0 **** 0.06
25928 H 23.19694820318756 97.13749881409984 87.06850154777119 H 0.0 **** 0.06
25929 H 24.696621862889273 96.50024631616627 86.35173976484671 H 0.0 **** 0.06
25930 H 24.774654606357103 97.59731920845755 87.75159663874527 H 0.0 **** 0.06
25931 C 67.39016695495215 28.670877880441935 33.97877478885363 C 0.0 **** -0.24
25932 H 66.6979113740737 29.281021577890897 33.39948272846604 H 0.0 **** 0.06
25933 H 67.58122301572118 27.73705467195714 33.44925112316619 H 0.0 **** 0.06
25934 H 66.95540726055458 28.454501711386627 34.954445743917546 H 0.0 **** 0.06
25935 H 68.3276625612946 29.21186550073611 34.11058867018795 H 0.0 **** 0.06
25936 C 92.82378241206399 39.24171769921077 95.35291728040768 C 0.0 **** -0.24
25937 H 93.16773626390616 38.886971072975484 96.32404034149975 H 0.0 **** 0.06
25938 H 92.78422561968983 40.33089392589538 95.35605807269819 H 0.0 **** 0.06
25939 H 91.82934096404907 38.84233641816243 95.15153873849063 H 0.0 **** 0.06
25940 H 93.51339024394022 38.905818303788095 94.57801073970656 H 0.0 **** 0.06
25941 C 86.08290376551281 110.07626499378537 89.85800149054225 C 0.0 **** -0.24
25942 H 85.99215820891413 109.100227785091 89.38068910345191 H 0.0 **** 0.06
25943 H 86.14643786295534 110.84943037786445 89.09242839347036 H 0.0 **** 0.06
25944 H 86.98178873257984 110.09765596447721 90.47312476333045 H 0.0 **** 0.06
25945 H 85.20921185378819 110.25614165176856 90.48460049556198 H 0.0 **** 0.06
25946 C 57.90302754058233 37.66290520070447 6.12954545747067 C 0.0 **** -0.24
25947 H 57.31028968381125 36.77732045697661 6.358765802560896 H 0.0 **** 0.06
25948 H 57.70416467613609 37.97698416354473 5.1056175532807515 H 0.0 **** 0.06
25949 H 58.96183927796025 37.42927647532872 6.23939887079618 H 0.0 **** 0.06
25950 H 57.63502228943986 38.46673705392175 6.81603440157528 H 0.0 **** 0.06
25951 C 50.872598284783635 105.34077542029054 128.14383793115576 C 0.0 **** -0.24
25952 H 50.004544685010956 105.89890348356418 128.49291301479934 H 0.0 **** 0.06
25953 H 50.92629953892799 105.394050203126 127.05631898410076 H 0.0 **** 0.06
25954 H 50.7839004971072 104.29948160769756 128.45376755920978 H 0.0 **** 0.06
25955 H 51.77739194769822 105.77164896328487 128.57376460539575 H 0.0 **** 0.06
25956 C 93.74759178471442 118.78034933028762 117.38491603250355 C 0.0 **** -0.24
25957 H 93.59428512268829 118.70215413790365 116.3090763651058 H 0.0 **** 0.06
25958 H 94.80988783812109 118.911171971125 117.59262023620616 H 0.0 **** 0.06
25959 H 93.3906468745551 117.87196073349583 117.8699314365341 H 0.0 **** 0.06
25960 H 93.19361001530274 119.63778947133096 117.76923122628558 H 0.0 **** 0.06
25961 C 104.39802966140394 97.408938148105 123.86371354522043 C 0.0 **** -0.24
25962 H 103.9120231145723 96.46650731909972 123.61119574204236 H 0.0 **** 0.06
25963 H 105.25819723847891 97.56093635475531 123.2114162391619 H 0.0 **** 0.06
25964 H 104.72903962732468 97.37998451298489 124.90176679586824 H 0.0 **** 0.06
25965 H 103.691445424165 98.22837066149091 123.7304485346196 H 0.0 **** 0.06
25966 C 77.72323920946204 62.736331411970895 65.65605488576804 C 0.0 **** -0.24
25967 H 78.18967600560975 62.75433972330495 64.67090317011105 H 0.0 **** 0.06
25968 H 76.75928202816462 63.24352648069444 65.61051140425256 H 0.0 **** 0.06
25969 H 78.36794997089083 63.245583953249394 66.37205092423606 H 0.0 **** 0.06
25970 H 77.57771190909693 61.70298898225727 65.96934172347244 H 0.0 **** 0.06
25971 C 100.97793843031583 94.25975167553639 124.87666594111141 C 0.0 **** -0.24
25972 H 101.2514728333489 94.26553982616247 123.82151007430747 H 0.0 **** 0.06
25973 H 100.23654206153171 93.48020272936964 125.05426768539797 H 0.0 **** 0.06
25974 H 100.56073962375443 95.22889260519639 125.1497199094855 H 0.0 **** 0.06
25975 H 101.86452985972323 94.06315552118605 125.47969004669494 H 0.0 **** 0.06
25976 C 59.72973962723279 4.8785671814724765 57.73897945369157 C 0.0 **** -0.24
25977 H 59.994459356204544 5.430100505209509 58.64047813030557 H 0.0 **** 0.06
25978 H 59.29106336346935 3.9195388611047974 58.014831397982604 H 0.0 **** 0.06
25979 H 60.62436335505144 4.711383933575803 57.139434962029554 H 0.0 **** 0.06
25980 H 59.0072808132816 5.454810328358349 57.16058893522211 H 0.0 **** 0.06
25981 C 60.03176530545625 49.01961683337596 21.94113307461396 C 0.0 **** -0.24
25982 H 59.38172533543994 48.294658017236614 22.431842018136138 H 0.0 **** 0.06
25983 H 60.219283488838244 49.85489259532906 22.614849428842177 H 0.0 **** 0.06
25984 H 59.54908033315067 49.384054975058646 21.03463238692939 H 0.0 **** 0.06
25985 H 60.977019590692464 48.541737544786784 21.68209593399746 H 0.0 **** 0.06
25986 C 59.13337993470037 85.99899632987974 17.416967701581072 C 0.0 **** -0.24
25987 H 59.59017558847967 86.92892718593723 17.080545764153555 H 0.0 **** 0.06
25988 H 58.04875230512869 86.10777208155244 17.420317254989 H 0.0 **** 0.06
25989 H 59.478943550657334 85.76943459908082 18.425883840942618 H 0.0 **** 0.06
25990 H 59.41686018113198 85.19101679360014 16.743398536232206 H 0.0 **** 0.06
25991 C 25.810953646992573 22.00575303915933 97.54629334651426 C 0.0 **** -0.24
25992 H 26.665031578940706 22.2528301183566 96.91559509657205 H 0.0 **** 0.06
25993 H 25.233915032875025 22.90885396572989 97.74581938283427 H 0.0 **** 0.06
25994 H 26.165709941962547 21.58504619390544 98.48753201385426 H 0.0 **** 0.06
25995 H 25.182205502590357 21.277120205076244 97.03612342953096 H 0.0 **** 0.06
25996 C 108.32275654834774 124.12779827610184 76.02398920234081 C 0.0 **** -0.24
25997 H 107.35332775193645 123.63092606332991 76.05123336011992 H 0.0 **** 0.06
25998 H 108.96544518253143 123.6322589023734 75.29531671046547 H 0.0 **** 0.06
25999 H 108.78494438787546 124.07565977130515 77.00999552670714 H 0.0 **** 0.06
26000 H 108.18834568696218 125.17143002638088 75.73969717436214 H 0.0 **** 0.06
26001 C 127.36725134619917 9.162838041138059 24.244035559918842 C 0.0 **** -0.24
26002 H 127.80896877431798 8.176260494771327 24.385460267173812 H 0.0 **** 0.06
26003 H 126.40235555660803 9.204792392991862 24.750795365386153 H 0.0 **** 0.06
26004 H 127.22725156871627 9.349240560256249 23.17940340973837 H 0.0 **** 0.06
26005 H 128.03091294150977 9.920376666663856 24.66103195404267 H 0.0 **** 0.06
26006 C 97.09588610387269 90.3535619785706 111.60586261115759 C 0.0 **** -0.24
26007 H 96.53274671253209 90.37202820883611 112.53956789622981 H 0.0 **** 0.06
26008 H 97.05251602221071 91.33603746660275 111.13575153558344 H 0.0 **** 0.06
26009 H 96.6642926540292 89.61047123724697 110.9358038998912 H 0.0 **** 0.06
26010 H 98.13437669278818 90.09534769060696 111.81317432959992 H 0.0 **** 0.06
26011 C 80.83204770305173 3.348970389602684 116.43069904924151 C 0.0 **** -0.24
26012 H 79.99592608820294 3.4748175572252364 115.74316753784495 H 0.0 **** 0.06
26013 H 81.43484306033784 2.4970626084557637 116.11533991280824 H 0.0 **** 0.06
26014 H 80.45199933815545 3.174724562297328 117.43646741454333 H 0.0 **** 0.06
26015 H 81.4451967848446 4.2498423436353505 116.42426745310476 H 0.0 **** 0.06
26016 C 128.79765680811562 1.6566028105924602 115.55086877367883 C 0.0 **** -0.24
26017 H 129.07042782676388 2.4193219007221956 116.27966365904288 H 0.0 **** 0.06
26018 H 129.37452612381514 1.8029822413883494 114.63809372847449 H 0.0 **** 0.06
26019 H 127.73333742152377 1.7336475086397911 115.32544715282303 H 0.0 **** 0.06
26020 H 129.01115835272915 0.6698552239121227 115.96233175576015 H 0.0 **** 0.06
26021 C 114.66801656787838 78.4290091276458 78.52204833577312 C 0.0 **** -0.24
26022 H 114.75120288243913 79.36463691593795 79.07664841609527 H 0.0 **** 0.06
26023 H 115.63410717440006 78.18105325106629 78.08264842592926 H 0.0 **** 0.06
26024 H 113.9261461135528 78.53987393237908 77.73159425176735 H 0.0 **** 0.06
26025 H 114.36109757822352 77.6318092975143 79.19994338629037 H 0.0 **** 0.06
26026 C 8.855756291965008 59.54390552975917 111.3010749744531 C 0.0 **** -0.24
26027 H 9.514165199190074 60.405079459120174 111.4182444492862 H 0.0 **** 0.06
26028 H 9.380950847261289 58.64002618407645 111.61391586423375 H 0.0 **** 0.06
26029 H 8.563206607551649 59.450698524416566 110.2548352074571 H 0.0 **** 0.06
26030 H 7.966713881575714 59.67894297564891 111.91621389391983 H 0.0 **** 0.06
26031 C 91.00113716967518 111.82190090496937 82.14519192862537 C 0.0 **** -0.24
26032 H 89.91336898182087 111.77553614426498 82.18672616547268 H 0.0 **** 0.06
26033 H 91.321659061409 112.86393708009645 82.16221658352993 H 0.0 **** 0.06
26034 H 91.34943566918274 111.34916855939397 81.22686042238921 H 0.0 **** 0.06
26035 H 91.42008496628814 111.29896183612202 83.0049645431097 H 0.0 **** 0.06
26036 C 29.90276207149455 129.01400175302328 33.4720115112043 C 0.0 **** -0.24
26037 H 29.378190800265628 128.16403964891683 33.03517070319043 H 0.0 **** 0.06
26038 H 30.561072569783192 129.45700594046838 32.72497869803095 H 0.0 **** 0.06
26039 H 30.493814499462957 128.67655769582367 34.323043807757585 H 0.0 **** 0.06
26040 H 29.177390040565996 129.75615282875864 33.80408020582507 H 0.0 **** 0.06
26041 C 105.4355508939828 55.11229345490875 51.137924193277556 C 0.0 **** -0.24
26042 H 104.89385970304969 54.30881007139945 50.63919324789899 H 0.0 **** 0.06
26043 H 104.8400898910819 55.48813276898471 51.97025555863385 H 0.0 **** 0.06
26044 H 105.62083065892946 55.91976172517424 50.430353130662226 H 0.0 **** 0.06
26045 H 106.38542451332297 54.731701640249184 51.51308473721387 H 0.0 **** 0.06
26046 C 29.671192827081 69.41605876003473 59.78018510722637 C 0.0 **** -0.24
26047 H 28.885322737102882 68.84780202627593 59.28156600082326 H 0.0 **** 0.06
26048 H 29.560791374686772 69.31754719433721 60.860890227173854 H 0.0 **** 0.06
26049 H 29.591644487181696 70.46690643809382 59.50095094826355 H 0.0 **** 0.06
26050 H 30.64478081841753 69.03204249167277 59.47721094280536 H 0.0 **** 0.06
26051 C 69.10621442793048 124.40620457398649 4.88190752234155 C 0.0 **** -0.24
26052 H 68.70674837932809 125.16348536135945 5.555231411853271 H 0.0 **** 0.06
26053 H 68.68148706382995 123.43430483789786 5.134601170646505 H 0.0 **** 0.06
26054 H 70.19093208798513 124.36542431197688 4.982744305939036 H 0.0 **** 0.06
26055 H 68.84687439918288 124.66043708565661 3.854566777798283 H 0.0 **** 0.06
26056 C 57.50106918784202 27.621876888517818 99.21698975437761 C 0.0 **** -0.24
26057 H 56.80634575928782 27.934191193295817 99.99630969505549 H 0.0 **** 0.06
26058 H 58.52271560004681 27.68974530369468 99.59284217475593 H 0.0 **** 0.06
26059 H 57.38941528669463 28.27150063371988 98.3483368214518 H 0.0 **** 0.06
26060 H 57.28711472808848 26.59248731196334 98.93078350801048 H 0.0 **** 0.06
26061 C 59.32618843579121 18.32908276010211 69.54254439975915 C 0.0 **** -0.24
26062 H 59.86284708373968 18.890030763352378 70.30830895657944 H 0.0 **** 0.06
26063 H 58.400550177073114 18.849504178070575 69.29380777123755 H 0.0 **** 0.06
26064 H 59.0936952930242 17.332536580651663 69.91767518764415 H 0.0 **** 0.06
26065 H 59.94794309604825 18.246332985998762 68.65117406177816 H 0.0 **** 0.06
26066 C 79.00331941426887 75.15728398618614 106.71345558457712 C 0.0 **** -0.24
26067 H 78.23748159799644 74.40196677549147 106.88978714771434 H 0.0 **** 0.06
26068 H 79.54052405456392 74.92280628306031 105.79367358170977 H 0.0 **** 0.06
26069 H 79.70277387030401 75.16878257820866 107.5497071906044 H 0.0 **** 0.06
26070 H 78.53313174443886 76.1363133255241 106.61921866370041 H 0.0 **** 0.06
26071 C 36.869040918562916 77.19015043514199 6.220390897226679 C 0.0 **** -0.24
26072 H 36.748918510010526 76.39407008338611 5.486386752230885 H 0.0 **** 0.06
26073 H 36.519820437318685 78.13147857731 5.795596975036773 H 0.0 **** 0.06
26074 H 37.921472432205746 77.28113941089822 6.488257205958718 H 0.0 **** 0.06
26075 H 36.28673587269196 76.95448191087921 7.11107133388947 H 0.0 **** 0.06
26076 C 117.11392012160277 38.07639285600662 61.9670167164322 C 0.0 **** -0.24
26077 H 118.1282879432853 37.823013741156274 61.658518048680634 H 0.0 **** 0.06
26078 H 116.46847289882501 38.12176518086147 61.08984871462789 H 0.0 **** 0.06
26079 H 117.11757962395123 39.04403751992402 62.46723046672247 H 0.0 **** 0.06
26080 H 116.7420436447831 37.31463542372535 62.6525821735282 H 0.0 **** 0.06
26081 C 66.47136787335441 87.94388650142515 76.54509947748555 C 0.0 **** -0.24
26082 H 65.51551341625398 87.42181404395588 76.50368612054301 H 0.0 **** 0.06
26083 H 67.13078518912724 87.43757541772968 77.25207438630366 H 0.0 **** 0.06
26084 H 66.3101546554247 88.97092844092948 76.87043398396945 H 0.0 **** 0.06
26085 H 66.92931450069355 87.9422353015429 75.55592273164568 H 0.0 **** 0.06
26086 C 90.85383768064266 85.76461508842578 40.309751144291866 C 0.0 **** -0.24
26087 H 91.1710713339321 84.95362820536144 39.653815490769965 H 0.0 **** 0.06
26088 H 91.6516862502276 85.99564596881862 41.014882201994126 H 0.0 **** 0.06
26089 H 89.96136993383323 85.46074979629697 40.856471049053674 H 0.0 **** 0.06
26090 H 90.63081355148486 86.64878587058718 39.71144619549728 H 0.0 **** 0.06
26091 C 21.161305203773452 103.89343372353144 14.956465065419138 C 0.0 **** -0.24
26092 H 20.834530079489525 104.93288827010929 14.994211128663267 H 0.0 **** 0.06
26093 H 22.021649470984187 103.80778821193186 14.2926239217513 H 0.0 **** 0.06
26094 H 20.349094540369947 103.27086586416058 14.582031448585326 H 0.0 **** 0.06
26095 H 21.439917225960755 103.56455880728211 15.957626441265177 H 0.0 **** 0.06
26096 C 18.898634111442334 11.814827035827363 26.376068112205132 C 0.0 **** -0.24
26097 H 19.76494524223932 11.419874908108028 26.906646386478684 H 0.0 **** 0.06
26098 H 19.101133536309817 12.837726532757046 26.059135858458916 H 0.0 **** 0.06
26099 H 18.03194393926441 11.803289180832678 27.037486686000392 H 0.0 **** 0.06
26100 H 18.696050678444067 11.196234050016187 25.50113885703601 H 0.0 **** 0.06
26101 C 8.13907524611659 24.75985189144061 68.0453540253767 C 0.0 **** -0.24
26102 H 7.547585165448936 23.890764179118626 68.33522565867293 H 0.0 **** 0.06
26103 H 9.053356050141588 24.790845710310236 68.63777908342826 H 0.0 **** 0.06
26104 H 7.560362460621036 25.667288261970413 68.22058606672107 H 0.0 **** 0.06
26105 H 8.392601246051527 24.68906814756709 66.98739858021088 H 0.0 **** 0.06
26106 C 93.91539523711091 39.5436054697265 26.570895373304666 C 0.0 **** -0.24
26107 H 93.05126457690633 40.095734994740695 26.93995721237411 H 0.0 **** 0.06
26108 H 94.62126348196637 40.236938465759124 26.11285183366425 H 0.0 **** 0.06
26109 H 93.59008543307236 38.81330267582874 25.829438107893907 H 0.0 **** 0.06
26110 H 94.39753728993252 39.02762329242836 27.400806734137518 H 0.0 **** 0.06
26111 C 20.068782310078177 33.88401837820992 89.58223126789025 C 0.0 **** -0.24
26112 H 20.618622076802865 33.2866589337492 90.31037717700809 H 0.0 **** 0.06
26113 H 20.76561402869021 34.51669185948161 89.03162946749667 H 0.0 **** 0.06
26114 H 19.342346871367 34.50943479742469 90.10072263946086 H 0.0 **** 0.06
26115 H 19.54989120120399 33.223340241172856 88.88728600455384 H 0.0 **** 0.06
26116 C 80.17201278187022 112.16742839169626 69.60824187746513 C 0.0 **** -0.24
26117 H 80.73705299650675 113.03577573700846 69.2695696060097 H 0.0 **** 0.06
26118 H 80.61762234981109 111.77933374338721 70.52482858612203 H 0.0 **** 0.06
26119 H 80.19506340310679 111.3970359113303 68.83817401987804 H 0.0 **** 0.06
26120 H 79.13896011604342 112.45832996231991 69.80040839818739 H 0.0 **** 0.06
26121 C 3.0518736810099654 122.4723556364282 59.78805022363949 C 0.0 **** -0.24
26122 H 2.070761111563627 122.32728495796623 60.24053791306497 H 0.0 **** 0.06
26123 H 3.756140423559714 121.75618822881877 60.21081734895026 H 0.0 **** 0.06
26124 H 3.398741510982063 123.48574764467406 59.99009926698395 H 0.0 **** 0.06
26125 H 2.981195832159358 122.32086736370844 58.71110250186919 H 0.0 **** 0.06
26126 C 72.29883571756972 9.51851281601536 34.777817582055405 C 0.0 **** -0.24
26127 H 72.31976142241817 9.230876786294115 35.82876861553089 H 0.0 **** 0.06
26128 H 73.25874265521136 9.28278735443363 34.31751258497533 H 0.0 **** 0.06
26129 H 72.11014366025873 10.5889268935024 34.69806508844252 H 0.0 **** 0.06
26130 H 71.5064814319997 8.970072815697627 34.26675220777682 H 0.0 **** 0.06
26131 C 127.71444137020987 65.40733560520513 18.176056432325765 C 0.0 **** -0.24
26132 H 128.64803731661908 65.53581140804405 18.723107623477972 H 0.0 **** 0.06
26133 H 127.91471128196363 65.43244169122536 17.104376358802142 H 0.0 **** 0.06
26134 H 127.02816271153742 66.21395656502679 18.435929012749966 H 0.0 **** 0.06
26135 H 127.2673419713503 64.44931125077497 18.440684308845334 H 0.0 **** 0.06
26136 C 115.36741610687835 80.81663807159435 53.01878894328871 C 0.0 **** -0.24
26137 H 115.79912578039205 79.84842304493924 52.76631150039796 H 0.0 **** 0.06
26138 H 114.28069553794063 80.75964447461212 52.94444719174274 H 0.0 **** 0.06
26139 H 115.73961722513968 81.57178504302982 52.32672837670279 H 0.0 **** 0.06
26140 H 115.64926801854193 81.08579012587552 54.036548305652246 H 0.0 **** 0.06
26141 C 12.832942025188913 96.82027658153774 120.75014690314876 C 0.0 **** -0.24
26142 H 12.30531288894798 96.04676604242856 121.30884848040233 H 0.0 **** 0.06
26143 H 12.349830589329201 97.78244401400045 120.91984556005602 H 0.0 **** 0.06
26144 H 12.804774219128035 96.58177856951083 119.68651830644052 H 0.0 **** 0.06
26145 H 13.868232867916788 96.86792289018382 121.08506341090089 H 0.0 **** 0.06
26146 C 89.198942106105 36.71932990512795 86.63059787152284 C 0.0 **** -0.24
26147 H 89.18942642056959 36.366114997240686 85.60012804040284 H 0.0 **** 0.06
26148 H 88.32529247601308 37.347760796426655 86.80785331604383 H 0.0 **** 0.06
26149 H 90.10561062605804 37.29949939868186 86.80659817907247 H 0.0 **** 0.06
26150 H 89.17701191411204 35.865511740806596 87.30754843013037 H 0.0 **** 0.06
26151 C 89.03959028248597 117.1535962928123 85.39339095335043 C 0.0 **** -0.24
26152 H 89.32243425639126 118.18766813339042 85.58783665096911 H 0.0 **** 0.06
26153 H 89.03926676174052 116.97398001672934 84.31741722528807 H 0.0 **** 0.06
26154 H 88.04166076209431 116.96850149305831 85.79289332867734 H 0.0 **** 0.06
26155 H 89.7529730679408 116.48482516888325 85.87328423668549 H 0.0 **** 0.06
26156 C 119.45863613375454 121.4122703180295 36.81208015813729 C 0.0 **** -0.24
26157 H 118.58349426597566 121.05657944383319 37.35678855584965 H 0.0 **** 0.06
26158 H 119.18463077410524 121.61062038598055 35.77574150653061 H 0.0 **** 0.06
26159 H 120.23880238058285 120.65125500033136 36.84255668085888 H 0.0 **** 0.06
26160 H 119.82658271831131 122.32846711479615 37.273751254428106 H 0.0 **** 0.06
26161 C 9.416616435373228 113.80931491651488 93.69603205079977 C 0.0 **** -0.24
26162 H 10.165775448770091 113.26120227949788 94.2669171092927 H 0.0 **** 0.06
26163 H 8.83637851003536 114.43920875354074 94.37066024442345 H 0.0 **** 0.06
26164 H 8.752787774491296 113.10321639559622 93.19674868318393 H 0.0 **** 0.06
26165 H 9.911404976780148 114.43141330160073 92.95155219570626 H 0.0 **** 0.06
26166 C 116.76270257024782 39.109230633569865 55.71513716478471 C 0.0 **** -0.24
26167 H 117.7057757765408 38.82223560246766 55.24810895562358 H 0.0 **** 0.06
26168 H 116.80341780400744 40.16161158928176 55.99742089638809 H 0.0 **** 0.06
26169 H 116.59778301725837 38.500407503653946 56.603914633929904 H 0.0 **** 0.06
26170 H 115.94595992636485 38.9529744542435 55.01048340214341 H 0.0 **** 0.06
26171 C 113.76093832024878 24.105518572519202 66.44901313631688 C 0.0 **** -0.24
26172 H 113.66520632101913 25.128189759899783 66.81590628428081 H 0.0 **** 0.06
26173 H 114.79159913776192 23.925727724599 66.14110881348728 H 0.0 **** 0.06
26174 H 113.09733332821224 23.962959261533257 65.59587906062602 H 0.0 **** 0.06
26175 H 113.49023807955979 23.409031718732138 67.24177592651074 H 0.0 **** 0.06
26176 C 10.253734414049347 76.20501347724806 96.02468012051649 C 0.0 **** -0.24
26177 H 10.906444255030465 77.00204704608879 95.6711695544342 H 0.0 **** 0.06
26178 H 10.756111496093013 75.64747014194249 96.8154962784937 H 0.0 **** 0.06
26179 H 10.019870682078306 75.53369840657224 95.19794476861401 H 0.0 **** 0.06
26180 H 9.331284204777262 76.63714614365253 96.41347759946737 H 0.0 **** 0.06
26181 C 59.93260448771946 72.1479474175266 49.67207806403097 C 0.0 **** -0.24
26182 H 58.9714370828799 72.46306484067205 49.265631619255444 H 0.0 **** 0.06
26183 H 60.612990798145745 71.90866352146334 48.85406509111559 H 0.0 **** 0.06
26184 H 59.7910352617198 71.26540106628032 50.29672405842393 H 0.0 **** 0.06
26185 H 60.35544037208882 72.95365305722473 50.27275746596267 H 0.0 **** 0.06
26186 C 8.996009675789555 93.8794405003668 99.80790495988012 C 0.0 **** -0.24
26187 H 9.41311121128939 93.31987540244174 100.64567266447415 H 0.0 **** 0.06
26188 H 8.136338603772554 94.45745210964492 100.14979939476734 H 0.0 **** 0.06
26189 H 8.681364375948437 93.18568503094818 99.0284890657856 H 0.0 **** 0.06
26190 H 9.752979981454825 94.55483473839408 99.40937134402606 H 0.0 **** 0.06
26191 C 121.21800535528436 82.55202542910997 85.22724692631813 C 0.0 **** -0.24
26192 H 121.78814954821762 81.6263345432986 85.31359810932129 H 0.0 **** 0.06
26193 H 120.65557160358011 82.54550967792896 84.293080805084 H 0.0 **** 0.06
26194 H 121.90085167263297 83.40112610715961 85.23427331932629 H 0.0 **** 0.06
26195 H 120.52824443589837 82.63293937209689 86.06728577711915 H 0.0 **** 0.06
26196 C 3.7724749184570783 18.19735063668 50.41579486745549 C 0.0 **** -0.24
26197 H 2.8802356089109935 18.34063955879614 51.02502696712793 H 0.0 **** 0.06
26198 H 4.660247208950295 18.32867844714366 51.03502251279927 H 0.0 **** 0.06
26199 H 3.7805559130645747 18.92778028947785 49.60716970462444 H 0.0 **** 0.06
26200 H 3.7671288284573166 17.190938773686554 49.996328429501915 H 0.0 **** 0.06
26201 C 93.01997045970282 70.53010697468136 53.424158399310215 C 0.0 **** -0.24
26202 H 94.05940795056429 70.47114396303391 53.09956388189522 H 0.0 **** 0.06
26203 H 92.7702147290695 71.56535395391637 53.656005813578474 H 0.0 **** 0.06
26204 H 92.88255374781488 69.91481661743 54.31307789371721 H 0.0 **** 0.06
26205 H 92.37065454919482 70.1681570662559 52.627362598472416 H 0.0 **** 0.06
26206 C 50.728332705917026 124.13550325920642 129.34060991690728 C 0.0 **** -0.24
26207 H 50.93237055674865 124.21923552406446 130.40793269710213 H 0.0 **** 0.06
26208 H 49.78886801170431 124.63835801667 129.110328193014 H 0.0 **** 0.06
26209 H 50.65528547671326 123.08339794207046 129.06697709803524 H 0.0 **** 0.06
26210 H 51.53814697481684 124.60232780290272 128.778425553426 H 0.0 **** 0.06
26211 C 78.63694528761883 98.74369958702832 14.706158134915569 C 0.0 **** -0.24
26212 H 79.38422003543107 99.08594370949399 13.990557090029455 H 0.0 **** 0.06
26213 H 77.92252129735016 99.54452692125136 14.897261302332993 H 0.0 **** 0.06
26214 H 79.12909740153273 98.46489951632341 15.6387423798719 H 0.0 **** 0.06
26215 H 78.11411577686377 97.87838739585996 14.298511725972645 H 0.0 **** 0.06
26216 C 6.680157218576454 21.2917449145271 91.44136927895846 C 0.0 **** -0.24
26217 H 6.425277284165389 20.372372583359436 91.96958350430978 H 0.0 **** 0.06
26218 H 6.374953330196973 22.1500312979166 92.03880920397017 H 0.0 **** 0.06
26219 H 6.163357822976991 21.313715722472296 90.48159473608462 H 0.0 **** 0.06
26220 H 7.7566514963473026 21.32758488398798 91.27583981382492 H 0.0 **** 0.06
26221 C 112.87649798102048 87.3719925899718 110.90590958035614 C 0.0 **** -0.24
26222 H 113.91574818242232 87.20549072315885 110.62279898991096 H 0.0 **** 0.06
26223 H 112.83321313762569 88.09599676036277 111.71948677120065 H 0.0 **** 0.06
26224 H 112.43358952978907 86.43090405459739 111.23249029419986 H 0.0 **** 0.06
26225 H 112.3237111474615 87.7555979648532 110.04789958758465 H 0.0 **** 0.06
26226 C 48.73587330268158 3.6495362441924044 80.03389201040325 C 0.0 **** -0.24
26227 H 49.26707849004707 4.573055174469459 79.80339405121421 H 0.0 **** 0.06
26228 H 47.824804028435565 3.8821211884369973 80.58420503814577 H 0.0 **** 0.06
26229 H 49.37329294054486 3.006746221828223 80.64107292644725 H 0.0 **** 0.06
26230 H 48.480758304936444 3.1360616382499984 79.10676114136587 H 0.0 **** 0.06
26231 C 117.80403388034875 5.347068079740907 122.68022679257649 C 0.0 **** -0.24
26232 H 117.18611954525704 5.8641036550097 123.4135367475534 H 0.0 **** 0.06
26233 H 118.35181107533526 6.078384408424768 122.08602057081177 H 0.0 **** 0.06
26234 H 117.16779226766698 4.750216258558396 122.02598598260661 H 0.0 **** 0.06
26235 H 118.50863038374587 4.694334757706173 123.19481342608108 H 0.0 **** 0.06
26236 C 66.49392150506193 61.72022558229638 61.813807587476305 C 0.0 **** -0.24
26237 H 66.70509907917946 62.63900354518516 61.26590832324236 H 0.0 **** 0.06
26238 H 66.24366424286109 60.92693296495118 61.10966656731503 H 0.0 **** 0.06
26239 H 65.65521236068409 61.88507496984971 62.488952776756534 H 0.0 **** 0.06
26240 H 67.37350530105161 61.43111650040862 62.389572983188884 H 0.0 **** 0.06
26241 C 98.21202565629474 52.27471384302606 119.34441065119242 C 0.0 **** -0.24
26242 H 98.20211130893236 53.043291752950836 118.57037106889112 H 0.0 **** 0.06
26243 H 99.08528109207984 52.41385004085316 119.98224414754634 H 0.0 **** 0.06
26244 H 98.25503856077015 51.29090237905257 118.87862820847744 H 0.0 **** 0.06
26245 H 97.30590603414112 52.353341215331284 119.94515638600046 H 0.0 **** 0.06
26246 C 20.892061740001708 84.51525788458319 63.8566076979306 C 0.0 **** -0.24
26247 H 21.144108663270316 85.01595663513987 62.921857692468876 H 0.0 **** 0.06
26248 H 21.634248173294168 83.74356037676604 64.06642631441773 H 0.0 **** 0.06
26249 H 19.90662551782208 84.05820016662886 63.769446152005884 H 0.0 **** 0.06
26250 H 20.885546348194623 85.24257460447902 64.66820389488319 H 0.0 **** 0.06
26251 C 21.25442055342978 74.89414975746047 18.95724471456927 C 0.0 **** -0.24
26252 H 20.9817013956731 75.89177879285862 19.30042979573807 H 0.0 **** 0.06
26253 H 20.58796358112818 74.15914888259994 19.40919749799653 H 0.0 **** 0.06
26254 H 22.283136782010956 74.67922443343866 19.246791785266396 H 0.0 **** 0.06
26255 H 21.165167501060523 74.84800796576829 17.87186630151001 H 0.0 **** 0.06
26256 C 124.93162719081667 52.65125528764949 120.88089313643223 C 0.0 **** -0.24
26257 H 125.86672463359272 53.191378563367294 120.73430506504843 H 0.0 **** 0.06
26258 H 125.0723822394288 51.60250673533483 120.61952375376518 H 0.0 **** 0.06
26259 H 124.1587943372052 53.08479429485524 120.24500646269144 H 0.0 **** 0.06
26260 H 124.62798959580266 52.729097980314435 121.92459336432267 H 0.0 **** 0.06
26261 C 101.24765215731746 50.400993497050976 11.093490992965798 C 0.0 **** -0.24
26262 H 101.77234299194349 49.95494562329816 11.938329608879826 H 0.0 **** 0.06
26263 H 100.28485871750867 49.906630517263295 10.961742972593754 H 0.0 **** 0.06
26264 H 101.84509939217922 50.279963228198056 10.189999469344542 H 0.0 **** 0.06
26265 H 101.08851148307691 51.46199807523867 11.284768212825469 H 0.0 **** 0.06
26266 C 65.56280390187982 68.63087755664058 12.708484328491203 C 0.0 **** -0.24
26267 H 66.56585822360421 69.00032466744942 12.920706627457232 H 0.0 **** 0.06
26268 H 65.36064569412741 68.72050821935274 11.640621539452631 H 0.0 **** 0.06
26269 H 64.83403198353665 69.2177130097728 13.267153356866366 H 0.0 **** 0.06
26270 H 65.49149848936293 67.58358466182035 13.00480289064624 H 0.0 **** 0.06
26271 C 57.95866796650769 26.273549465419222 71.89969434067979 C 0.0 **** -0.24
26272 H 57.84264491649738 25.19060969675749 71.94529686243433 H 0.0 **** 0.06
26273 H 57.693427796855005 26.708370725100934 72.86356861414697 H 0.0 **** 0.06
26274 H 57.305131808156105 26.676738001063114 71.12665558554625 H 0.0 **** 0.06
26275 H 58.99443563261791 26.518330593772987 71.66345709721577 H 0.0 **** 0.06
26276 C 85.59024837234895 45.600053321294396 13.730364829387241 C 0.0 **** -0.24
26277 H 86.17426427162152 45.34253277412671 12.846901159802485 H 0.0 **** 0.06
26278 H 86.20570531171452 46.18410315471954 14.41452417515967 H 0.0 **** 0.06
26279 H 85.26055083710256 44.68734662686229 14.226348170031542 H 0.0 **** 0.06
26280 H 84.72106475595317 46.18726167106276 13.432919537260545 H 0.0 **** 0.06
26281 C 107.90638316007264 126.17312481404988 2.857723278399824 C 0.0 **** -0.24
26282 H 107.44590591288437 126.97005477678073 3.4409760239759173 H 0.0 **** 0.06
26283 H 108.71025842817055 125.71740752194725 3.436307588157792 H 0.0 **** 0.06
26284 H 108.31171928105857 126.58577310201113 1.9347171026991283 H 0.0 **** 0.06
26285 H 107.1572885154163 125.41683698961799 2.6206189165009697 H 0.0 **** 0.06
26286 C 62.71281563238534 107.4928560100542 26.150524161658957 C 0.0 **** -0.24
26287 H 62.26452276514635 107.19328011547705 27.098397211310257 H 0.0 **** 0.06
26288 H 63.74299030988362 107.80641398395917 26.320117834325714 H 0.0 **** 0.06
26289 H 62.14551649679697 108.32179612046178 25.72709003107331 H 0.0 **** 0.06
26290 H 62.697128756495545 106.65080848586882 25.459494287909273 H 0.0 **** 0.06
26291 C 32.684933566252255 21.55358735440845 26.3865247044387 C 0.0 **** -0.24
26292 H 31.849731707426542 21.958902051984268 26.958581848373996 H 0.0 **** 0.06
26293 H 33.0190623258906 22.293301156833962 25.65930884414638 H 0.0 **** 0.06
26294 H 32.36515354673318 20.651002984255143 25.865978211379087 H 0.0 **** 0.06
26295 H 33.50470047757072 21.312230069151383 27.063510205284217 H 0.0 **** 0.06
26296 C 92.08933810852228 7.036983048828603 90.98688363623997 C 0.0 **** -0.24
26297 H 92.80245256289741 7.821395056176158 91.24283112455306 H 0.0 **** 0.06
26298 H 92.59369637802659 6.070746547230456 90.99638244573174 H 0.0 **** 0.06
26299 H 91.683975311838 7.2263904480661125 89.99393993211898 H 0.0 **** 0.06
26300 H 91.27880450471744 7.032473734862592 91.71581945351721 H 0.0 **** 0.06
26301 C 88.32629829685274 47.40989430129754 118.46646300384958 C 0.0 **** -0.24
26302 H 88.02638028970583 46.93116887838403 117.53424058847145 H 0.0 **** 0.06
26303 H 89.39501991630166 47.62262236224579 118.43761252386491 H 0.0 **** 0.06
26304 H 88.11041150831485 46.74412779635699 119.30215393493756 H 0.0 **** 0.06
26305 H 87.77308942473121 48.340331355758565 118.59145204524168 H 0.0 **** 0.06
26306 C 40.18084315603838 55.33342911147375 59.838010899852435 C 0.0 **** -0.24
26307 H 39.87672022657003 55.826038897753804 58.91423423032748 H 0.0 **** 0.06
26308 H 41.20507632837737 55.61731304927852 60.0806316139377 H 0.0 **** 0.06
26309 H 40.12445030125747 54.25223664458518 59.707434382254235 H 0.0 **** 0.06
26310 H 39.51707823477096 55.63699024228106 60.64696774988195 H 0.0 **** 0.06
26311 C 20.091776380160553 48.06193271239914 45.84344963484281 C 0.0 **** -0.24
26312 H 19.422132606162307 48.23761665327734 45.002162062268496 H 0.0 **** 0.06
26313 H 21.07242446377998 48.483384920751575 45.62131708062981 H 0.0 **** 0.06
26314 H 20.18651756173253 46.9887461282828 46.0138439581863 H 0.0 **** 0.06
26315 H 19.685576357084273 48.536770638559716 46.73704406404852 H 0.0 **** 0.06
26316 C 106.31952010897538 48.03684612085149 83.61881730441516 C 0.0 **** -0.24
26317 H 106.86195505558513 48.932567618275314 83.31845798166128 H 0.0 **** 0.06
26318 H 107.02715701693708 47.28193119728893 83.96271406157908 H 0.0 **** 0.06
26319 H 105.75794161848407 47.64979410322783 82.76894039040761 H 0.0 **** 0.06
26320 H 105.63034631178209 48.28383472548762 84.4271530311016 H 0.0 **** 0.06
26321 C 81.29981964450349 18.61981626053624 120.5090343637765 C 0.0 **** -0.24
26322 H 80.9771451778251 17.690537968926577 120.03969386175791 H 0.0 **** 0.06
26323 H 80.70875026312504 19.44878470302556 120.11909743890374 H 0.0 **** 0.06
26324 H 82.35375989855041 18.789727933722183 120.28965474703527 H 0.0 **** 0.06
26325 H 81.16024775438115 18.54899189430394 121.58735158027679 H 0.0 **** 0.06
26326 C 55.870483925406575 48.38272521187088 57.59303049367669 C 0.0 **** -0.24
26327 H 55.34629168472492 49.20025752794862 58.08804552452766 H 0.0 **** 0.06
26328 H 55.37404633702545 47.439911664542365 57.823299511386125 H 0.0 **** 0.06
26329 H 56.90136670627578 48.34552879707576 57.94621547337853 H 0.0 **** 0.06
26330 H 55.86137114068066 48.54500921792663 56.51537548905182 H 0.0 **** 0.06
26331 C 65.83368254479583 66.6140649085392 48.18589466347282 C 0.0 **** -0.24
26332 H 66.26394014408751 67.10390661775618 47.311296999813734 H 0.0 **** 0.06
26333 H 65.19868768226613 65.78867465452981 47.86248783382884 H 0.0 **** 0.06
26334 H 65.23829036512412 67.33241419276222 48.748191603863006 H 0.0 **** 0.06
26335 H 66.63450827296818 66.23025484890829 48.81766554130361 H 0.0 **** 0.06
26336 C 76.31615483096004 63.04889596488985 79.70839201873306 C 0.0 **** -0.24
26337 H 75.24705023447557 62.94041377205875 79.89114717751971 H 0.0 **** 0.06
26338 H 76.8689857153183 62.43149038123491 80.41804894862011 H 0.0 **** 0.06
26339 H 76.60182175397179 64.09267968167026 79.83568061214851 H 0.0 **** 0.06
26340 H 76.54559871672508 62.72937420500787 78.69293463693381 H 0.0 **** 0.06
26341 C 75.80266179387303 113.75657780179858 101.53378902292502 C 0.0 **** -0.24
26342 H 76.15679578217714 113.93776957131757 102.54931362163677 H 0.0 **** 0.06
26343 H 75.73147065790607 114.7042643286228 101.00002358977733 H 0.0 **** 0.06
26344 H 74.81975587394612 113.28519188127308 101.57118990462999 H 0.0 **** 0.06
26345 H 76.50156724049396 113.09899723060545 101.01743506956132 H 0.0 **** 0.06
26346 C 90.18040661847076 19.216693164579432 77.74425110873457 C 0.0 **** -0.24
26347 H 90.08037996056188 19.244575075285347 76.65967345828766 H 0.0 **** 0.06
26348 H 91.05161433736592 19.799408461625298 78.04434524652218 H 0.0 **** 0.06
26349 H 90.30454414731432 18.183195763598633 78.07065205162725 H 0.0 **** 0.06
26350 H 89.28513165798549 19.637144299709774 78.20235705807752 H 0.0 **** 0.06
26351 C 122.8802026488147 59.32495000458648 86.6585580152445 C 0.0 **** -0.24
26352 H 123.92887476414035 59.24558700710135 86.94335394898864 H 0.0 **** 0.06
26353 H 122.80919968287539 59.567963676433806 85.59843047752996 H 0.0 **** 0.06
26354 H 122.40192918710078 60.109618118995826 87.24497248344298 H 0.0 **** 0.06
26355 H 122.38074666168802 58.37418340948298 86.847404838632 H 0.0 **** 0.06
26356 C 103.8254914117311 88.27051548205976 101.0037233724645 C 0.0 **** -0.24
26357 H 103.64972633165854 88.55091072067812 99.96590569518028 H 0.0 **** 0.06
26358 H 104.64625835531433 87.55452263280269 101.05254310735685 H 0.0 **** 0.06
26359 H 102.92272609648478 87.81669247420425 101.41426936297655 H 0.0 **** 0.06
26360 H 104.081531625546 89.15819969904179 101.58230061022599 H 0.0 **** 0.06
26361 C 25.300376971547614 2.974269892802237 29.85074796310522 C 0.0 **** -0.24
26362 H 26.247521145428138 2.5820330740528092 30.22191328305108 H 0.0 **** 0.06
26363 H 24.475995608288876 2.4625643105942423 30.346575745083072 H 0.0 **** 0.06
26364 H 25.23623992517321 2.811822212495315 28.775084154337748 H 0.0 **** 0.06
26365 H 25.244027982782768 4.042448975760486 30.060203698537066 H 0.0 **** 0.06
26366 C 80.18213210191858 8.104308412034328 20.85176011078181 C 0.0 **** -0.24
26367 H 79.99785345159277 7.260472775325809 20.186502796749778 H 0.0 **** 0.06
26368 H 81.19247317004452 8.480217269304802 20.689341061223786 H 0.0 **** 0.06
26369 H 80.07621875998028 7.780461644452288 21.88712966015521 H 0.0 **** 0.06
26370 H 79.46208488101168 8.895910887258623 20.64266675647025 H 0.0 **** 0.06
26371 C 46.69607628965214 44.64950719507493 21.438616798334465 C 0.0 **** -0.24
26372 H 47.740830595646315 44.893452306808 21.628755274825494 H 0.0 **** 0.06
26373 H 46.624067643727855 43.629090364661806 21.06054962478396 H 0.0 **** 0.06
26374 H 46.29082836781242 45.34046281475895 20.698951360871206 H 0.0 **** 0.06
26375 H 46.128633845422115 44.73552214804937 22.365345980124005 H 0.0 **** 0.06
26376 C 42.321272860537704 17.513589881965487 31.66121962071682 C 0.0 **** -0.24
26377 H 41.3156989546201 17.550115054798624 32.08012712268743 H 0.0 **** 0.06
26378 H 42.65592370791316 18.525916086842955 31.431802949455005 H 0.0 **** 0.06
26379 H 42.31317858910555 16.917869799166525 30.748414855930918 H 0.0 **** 0.06
26380 H 43.00042256245459 17.061428658656666 32.38432985230571 H 0.0 **** 0.06
26381 C 0.12426975369550064 68.1511487568892 13.729172920401645 C 0.0 **** -0.24
26382 H -0.43242022202122143 67.42971759438299 13.131241648114678 H 0.0 **** 0.06
26383 H 0.8945065663310174 67.6330306458398 14.299793022790269 H 0.0 **** 0.06
26384 H -0.5574448604460827 68.65761878653876 14.412693792712943 H 0.0 **** 0.06
26385 H 0.5897637498860604 68.88430555069931 13.07127637463676 H 0.0 **** 0.06
26386 C 30.904673387735784 11.863154079216145 58.67239523286514 C 0.0 **** -0.24
26387 H 31.708577902405523 12.452473155697561 59.1123952036379 H 0.0 **** 0.06
26388 H 31.29777571637527 10.90105161135429 58.342139371724315 H 0.0 **** 0.06
26389 H 30.48765964966708 12.397862718186246 57.81963405732587 H 0.0 **** 0.06
26390 H 30.124648942696012 11.70052312427552 59.41663749543028 H 0.0 **** 0.06
26391 C 69.03770116884562 58.45339328669215 96.90131813751212 C 0.0 **** -0.24
26392 H 68.10905236171436 58.44320477529922 97.4739499436633 H 0.0 **** 0.06
26393 H 69.51660455432636 57.476673298385464 96.97072335335461 H 0.0 **** 0.06
26394 H 69.70395376342026 59.21543085024567 97.30550212228981 H 0.0 **** 0.06
26395 H 68.81847319672534 58.67858056576344 95.85817903437751 H 0.0 **** 0.06
26396 C 70.68005068574527 40.74459434043411 97.98641801756858 C 0.0 **** -0.24
26397 H 70.15439316794755 40.5962392270911 97.0437492849432 H 0.0 **** 0.06
26398 H 71.05465068735596 39.786321047547766 98.34738844558748 H 0.0 **** 0.06
26399 H 69.99511696597746 41.16654924619103 98.72182220637993 H 0.0 **** 0.06
26400 H 71.51589910020513 41.42749885548169 97.83440051373637 H 0.0 **** 0.06
26401 C 118.70796320681839 42.038866130210295 33.414269821387784 C 0.0 **** -0.24
26402 H 119.66346409659096 41.68185859039832 33.79887500866344 H 0.0 **** 0.06
26403 H 118.08165354803981 41.18622579685845 33.152183701386676 H 0.0 **** 0.06
26404 H 118.87941074413166 42.64984235239774 32.52785102333713 H 0.0 **** 0.06
26405 H 118.20940634918884 42.63625559698198 34.176747546823655 H 0.0 **** 0.06
26406 C 61.46727506641875 96.2913994563924 56.02049150686429 C 0.0 **** -0.24
26407 H 61.450227692667255 96.5251925640803 54.955509489481415 H 0.0 **** 0.06
26408 H 61.598112468699426 95.21760097973645 56.15379891789661 H 0.0 **** 0.06
26409 H 60.52665895942887 96.6021320605271 56.47546850593062 H 0.0 **** 0.06
26410 H 62.29316573756573 96.82003792017204 56.49501586519227 H 0.0 **** 0.06
26411 C 122.99550314737306 75.75159801336127 13.909391721365324 C 0.0 **** -0.24
26412 H 122.98539563566865 76.29954381865662 12.967501776200038 H 0.0 **** 0.06
26413 H 123.45382055181278 76.36910791454798 14.682513447649455 H 0.0 **** 0.06
26414 H 123.56984916989424 74.83316343015542 13.788830438968745 H 0.0 **** 0.06
26415 H 121.97375736188033 75.5065532463035 14.198059417831217 H 0.0 **** 0.06
26416 C 95.6865460667889 56.916601269321106 76.31810478419774 C 0.0 **** -0.24
26417 H 95.87815444933995 55.8468197113619 76.23508001612828 H 0.0 **** 0.06
26418 H 95.42005488349227 57.15819670573022 77.34778320442486 H 0.0 **** 0.06
26419 H 94.86512213602632 57.19077412741471 75.65600550944116 H 0.0 **** 0.06
26420 H 96.58131090457559 57.4692674038417 76.03444934346231 H 0.0 **** 0.06
26421 C 86.233680717582 22.045930700413493 18.759391604000882 C 0.0 **** -0.24
26422 H 86.9471783256592 21.838934094369534 19.556690801661034 H 0.0 **** 0.06
26423 H 85.98440278334792 23.107033179881654 18.76097526746031 H 0.0 **** 0.06
26424 H 85.32970865744787 21.45930064184995 18.919853747718548 H 0.0 **** 0.06
26425 H 86.67510451231924 21.77712744210865 17.798844674289114 H 0.0 **** 0.06
26426 C 80.13774223740594 113.09864525440238 82.18378392678056 C 0.0 **** -0.24
26427 H 80.44866248305212 112.44202294115274 82.99624450910721 H 0.0 **** 0.06
26428 H 79.53688786689068 113.91432180471585 82.5861112400598 H 0.0 **** 0.06
26429 H 79.54535335346398 112.53119196033629 81.46543534395792 H 0.0 **** 0.06
26430 H 81.01813024559792 113.50592365889176 81.68733081924086 H 0.0 **** 0.06
26431 C 21.95890448701033 121.40355433618063 87.61515706609777 C 0.0 **** -0.24
26432 H 22.88207858985521 121.5775077330219 88.16871944574092 H 0.0 **** 0.06
26433 H 21.419255127626485 120.56861670758106 88.06174880049957 H 0.0 **** 0.06
26434 H 22.19632003000234 121.17010258510064 86.57736200091517 H 0.0 **** 0.06
26435 H 21.339207593981214 122.299148312489 87.65246157739767 H 0.0 **** 0.06
26436 C 16.325832498895267 105.94966283736515 16.82967862412417 C 0.0 **** -0.24
26437 H 16.853731200276968 106.88411705441273 17.022234576824104 H 0.0 **** 0.06
26438 H 16.828191575534163 105.13492473030867 17.351265290941086 H 0.0 **** 0.06
26439 H 16.322323385063726 105.74785933803716 15.758490728471202 H 0.0 **** 0.06
26440 H 15.299329601873282 106.0327600591244 17.18768303991459 H 0.0 **** 0.06
26441 C 66.46969908548867 129.51155219178062 120.09971394047486 C 0.0 **** -0.24
26442 H 67.28861356759649 130.22962154308647 120.06599588861137 H 0.0 **** 0.06
26443 H 66.58461798930962 128.790676570149 119.29071801291275 H 0.0 **** 0.06
26444 H 65.52140570074096 130.03800950424014 119.98620671014842 H 0.0 **** 0.06
26445 H 66.4826616892207 128.99060536875817 121.05713749060789 H 0.0 **** 0.06
26446 C 100.13285286927749 127.65989421872281 43.03979649638201 C 0.0 **** -0.24
26447 H 100.17404770132853 127.03639667619946 43.93253567009198 H 0.0 **** 0.06
26448 H 101.04366474637007 127.52038754385248 42.45633942173552 H 0.0 **** 0.06
26449 H 100.04592913217871 128.7071518980163 43.332612471781744 H 0.0 **** 0.06
26450 H 99.26911659647097 127.37710137127374 42.438724719309505 H 0.0 **** 0.06
26451 C 56.700390742177134 19.18984245177098 27.616208113273956 C 0.0 **** -0.24
26452 H 57.62401326621499 19.712044973047895 27.86736637331603 H 0.0 **** 0.06
26453 H 56.57340985760618 19.17517559683308 26.534257955550515 H 0.0 **** 0.06
26454 H 55.855822591406294 19.704091989280073 28.075956499088818 H 0.0 **** 0.06
26455 H 56.74947459716229 18.16703991008935 27.990661370383947 H 0.0 **** 0.06
26456 C 65.45142701025273 9.858882360147845 125.71758442288368 C 0.0 **** -0.24
26457 H 65.19592333256337 9.445633208049173 124.74166101403219 H 0.0 **** 0.06
26458 H 65.01214388420622 10.85087173193864 125.81795789690571 H 0.0 **** 0.06
26459 H 66.53579870033607 9.931026670882602 125.80794353416817 H 0.0 **** 0.06
26460 H 65.06420492152269 9.20735030656627 126.50032604807572 H 0.0 **** 0.06
26461 C 48.89932752499422 113.65282863385012 101.80132213356325 C 0.0 **** -0.24
26462 H 49.1137353523946 113.049255332719 102.68372344145963 H 0.0 **** 0.06
26463 H 48.7438473271213 112.99926069462002 100.9432124070409 H 0.0 **** 0.06
26464 H 49.73933620234436 114.31844166410694 101.6037869172359 H 0.0 **** 0.06
26465 H 47.999978827908286 114.24351474107338 101.97562449839327 H 0.0 **** 0.06
26466 C 9.260509478539397 104.76238410234062 120.55714804335118 C 0.0 **** -0.24
26467 H 9.939579987734067 104.47033989234508 119.75603762754857 H 0.0 **** 0.06
26468 H 9.4472331131043 104.14321330491283 121.4348184269413 H 0.0 **** 0.06
26469 H 8.230249927151167 104.6259432225537 120.22768538934382 H 0.0 **** 0.06
26470 H 9.425902747916354 105.81013294689983 120.80801831444258 H 0.0 **** 0.06
26471 C 71.28369785309545 72.38419495757 46.54149788396609 C 0.0 **** -0.24
26472 H 71.74935269043763 72.13533343913087 45.58765250137758 H 0.0 **** 0.06
26473 H 71.54678721802394 73.40537937108363 46.817254747521126 H 0.0 **** 0.06
26474 H 71.63802852113781 71.69695541017057 47.309281062432376 H 0.0 **** 0.06
26475 H 70.2006945780154 72.29936568943737 46.44958272966615 H 0.0 **** 0.06
26476 C 114.14162779538239 102.66879442938568 97.06923499224891 C 0.0 **** -0.24
26477 H 113.84288175338631 101.80135680158588 97.6584508075495 H 0.0 **** 0.06
26478 H 113.45343827473332 103.49264597690095 97.26141549664236 H 0.0 **** 0.06
26479 H 114.11647625327035 102.41416580608578 96.01004327589976 H 0.0 **** 0.06
26480 H 115.15191059592516 102.96615567743655 97.34690262447315 H 0.0 **** 0.06
26481 C 38.62390645540978 106.34701019903666 27.185398466546367 C 0.0 **** -0.24
26482 H 38.8863887940372 106.1301206252679 26.1493625251696 H 0.0 **** 0.06
26483 H 39.41425988308441 106.94259765214714 27.643383807353942 H 0.0 **** 0.06
26484 H 38.509202473978746 105.41206297953642 27.73373335943836 H 0.0 **** 0.06
26485 H 37.68687211939567 106.90179935915658 27.213824306010302 H 0.0 **** 0.06
26486 C 76.09884320290564 106.54722701436793 28.71253818032835 C 0.0 **** -0.24
26487 H 75.74978473349744 106.71398662800192 29.73092799332241 H 0.0 **** 0.06
26488 H 75.44079268127342 105.83440181440506 28.21550476096502 H 0.0 **** 0.06
26489 H 77.1137809433547 106.15136062833056 28.736509347209733 H 0.0 **** 0.06
26490 H 76.09022698390594 107.49108730294665 28.166397128590916 H 0.0 **** 0.06
26491 C 61.24245924853432 93.88489925152605 52.62547780809456 C 0.0 **** -0.24
26492 H 62.07726881176916 93.48211188677274 53.19962486244087 H 0.0 **** 0.06
26493 H 61.51761779405095 93.9377103799709 51.57207084360779 H 0.0 **** 0.06
26494 H 61.00052659004609 94.88324476440445 52.98860345910647 H 0.0 **** 0.06
26495 H 60.374578842097065 93.2352588150832 52.74277837843212 H 0.0 **** 0.06
26496 C 60.66038827984232 54.61002981143926 91.6541229220501 C 0.0 **** -0.24
26497 H 61.044051115645175 54.480652803633234 90.64200687149733 H 0.0 **** 0.06
26498 H 60.86145011256713 55.627375340710756 91.99069790121655 H 0.0 **** 0.06
26499 H 61.15157013841082 53.9017153879565 92.32153250082959 H 0.0 **** 0.06
26500 H 59.58593320558316 54.43034582454665 91.66055362923231 H 0.0 **** 0.06
26501 C 80.32633442054367 28.705469813675165 22.64098281248593 C 0.0 **** -0.24
26502 H 79.40159981239952 29.187101269281413 22.959511525343544 H 0.0 **** 0.06
26503 H 80.90291230899135 28.412107607928917 23.518655339210937 H 0.0 **** 0.06
26504 H 80.9098977644556 29.401635053354113 22.03872934333009 H 0.0 **** 0.06
26505 H 80.09062788868363 27.821613574389715 22.048639987508864 H 0.0 **** 0.06
26506 C 60.69887365996098 2.5612698231346656 62.54678363950313 C 0.0 **** -0.24
26507 H 60.89746613568266 2.3901183599923 61.488623115985035 H 0.0 **** 0.06
26508 H 61.17870880591633 1.7801882593068115 63.13737177872048 H 0.0 **** 0.06
26509 H 59.623829583876415 2.5413487277775744 62.72316335793437 H 0.0 **** 0.06
26510 H 61.0970209990156 3.5331041045350275 62.83872079299937 H 0.0 **** 0.06
26511 C 50.98852667526933 117.64490333997028 80.4255243976368 C 0.0 **** -0.24
26512 H 51.79234061057002 117.66279562448747 81.16185212489088 H 0.0 **** 0.06
26513 H 50.38825504854526 118.55019184338019 80.52236567850045 H 0.0 **** 0.06
26514 H 50.360077338861856 116.77167168558873 80.59669187422095 H 0.0 **** 0.06
26515 H 51.414820284737004 117.59696804004886 79.42402034100772 H 0.0 **** 0.06
26516 C 2.478738933255187 118.42253258231821 123.37011791887801 C 0.0 **** -0.24
26517 H 2.8249130567188843 117.88523307514726 124.2519614864539 H 0.0 **** 0.06
26518 H 3.1412017802591237 119.26677860535281 123.17505078762844 H 0.0 **** 0.06
26519 H 1.4650880363884937 118.78735267215572 123.54195139413034 H 0.0 **** 0.06
26520 H 2.482766122072377 117.75168887086156 122.51109000364428 H 0.0 **** 0.06
26521 C 26.96712383081484 64.3670344029511 10.007627517799932 C 0.0 **** -0.24
26522 H 26.040763036478637 64.2391654040814 9.447064673551807 H 0.0 **** 0.06
26523 H 27.48073380037451 63.40851890070769 10.083682192805611 H 0.0 **** 0.06
26524 H 26.73905285266565 64.73827326212626 11.006402651628633 H 0.0 **** 0.06
26525 H 27.607102788907667 65.0832432332719 9.491321048678998 H 0.0 **** 0.06
26526 C 110.7332779181356 84.701065021221 31.565068763008185 C 0.0 **** -0.24
26527 H 109.81931684505427 85.13004131961225 31.9761222553894 H 0.0 **** 0.06
26528 H 110.52911779330486 84.2873177258425 30.577550516950424 H 0.0 **** 0.06
26529 H 111.0903931015543 83.90835979047552 32.224450122847486 H 0.0 **** 0.06
26530 H 111.49418762346518 85.47621301907824 31.484041753028066 H 0.0 **** 0.06
26531 C 44.29145943069293 12.560018093837545 120.97520055119686 C 0.0 **** -0.24
26532 H 44.81395781343598 11.829870720082578 121.59328122924279 H 0.0 **** 0.06
26533 H 43.93397501944915 12.076043120106952 120.06623322596506 H 0.0 **** 0.06
26534 H 44.97415597987822 13.368031055088018 120.71228431962312 H 0.0 **** 0.06
26535 H 43.44511623357572 12.965834260768261 121.52879233613825 H 0.0 **** 0.06
26536 C 72.06066900492704 50.63057653735176 115.14042106487636 C 0.0 **** -0.24
26537 H 71.6378535077327 50.94322213831009 114.18617728198893 H 0.0 **** 0.06
26538 H 72.3913244985817 51.508539520979156 115.69570066569673 H 0.0 **** 0.06
26539 H 72.91198517408793 49.972286029851205 114.96161959178517 H 0.0 **** 0.06
26540 H 71.30395252980094 50.09854250283023 115.7161947889108 H 0.0 **** 0.06
26541 C 86.63468871337437 28.78007445158343 15.809750728304046 C 0.0 **** -0.24
26542 H 86.96637614119874 28.193609998080547 16.66694580548782 H 0.0 **** 0.06
26543 H 86.13198540611663 28.127726801982078 15.096106301411503 H 0.0 **** 0.06
26544 H 87.49657875231128 29.246244050575456 15.333117857881824 H 0.0 **** 0.06
26545 H 85.9427816001679 29.55359899140248 16.145507929407355 H 0.0 **** 0.06
26546 C 119.76391594659714 46.113467519133565 70.67497313274106 C 0.0 **** -0.24
26547 H 118.8177876118337 46.327595896538696 70.17722850086989 H 0.0 **** 0.06
26548 H 120.5733983468309 46.616596222010344 70.14684892607028 H 0.0 **** 0.06
26549 H 119.93965130725532 45.03787310686056 70.67194067905086 H 0.0 **** 0.06
26550 H 119.72121944349207 46.47090336478635 71.70345359085456 H 0.0 **** 0.06
26551 C 1.3597485998546404 28.651788397145964 82.50605563048362 C 0.0 **** -0.24
26552 H 2.4253358353811336 28.684227997054677 82.28163879123738 H 0.0 **** 0.06
26553 H 1.2043126188900715 28.864968724625186 83.56402458953659 H 0.0 **** 0.06
26554 H 0.9694511264579546 27.65995118473819 82.27508080534622 H 0.0 **** 0.06
26555 H 0.8388443666622152 29.39614997281066 81.90468383530538 H 0.0 **** 0.06
26556 C 85.30539405247325 31.150431320042735 128.30769466833095 C 0.0 **** -0.24
26557 H 84.54661844042258 31.309133242801664 127.54177188513457 H 0.0 **** 0.06
26558 H 84.923727098586 31.48879094612667 129.2715450866091 H 0.0 **** 0.06
26559 H 86.20134435579016 31.71591724809028 128.05329510176378 H 0.0 **** 0.06
26560 H 85.54818620341982 30.0895822670158 128.36369192901506 H 0.0 **** 0.06
26561 C 117.19249973493828 39.73044518288336 114.46822720827579 C 0.0 **** -0.24
26562 H 117.30337025933892 38.968578620483896 115.23961719996107 H 0.0 **** 0.06
26563 H 117.57788544499783 39.34820784965163 113.52250209137038 H 0.0 **** 0.06
26564 H 117.75137915105749 40.621016574131744 114.75489049346372 H 0.0 **** 0.06
26565 H 116.13870154019544 39.98361308173949 114.35617902436736 H 0.0 **** 0.06
26566 C 71.6888435740569 121.9587427363499 109.41789167274086 C 0.0 **** -0.24
26567 H 72.3295747013631 122.34689792840648 108.62657214244518 H 0.0 **** 0.06
26568 H 72.29837552815079 121.69635380884883 110.28290458970773 H 0.0 **** 0.06
26569 H 71.16563949614905 121.0726666803023 109.05922866600574 H 0.0 **** 0.06
26570 H 70.96157159863318 122.72033837839662 109.70231234544335 H 0.0 **** 0.06
26571 C 82.23867151180028 10.335884114187934 9.975519885466383 C 0.0 **** -0.24
26572 H 81.78307990225213 11.313888690802173 10.12941524870871 H 0.0 **** 0.06
26573 H 83.31886485493098 10.45002542052589 9.88305589416808 H 0.0 **** 0.06
26574 H 81.8399735016944 9.88927588827562 9.064201332653113 H 0.0 **** 0.06
26575 H 82.01155416862318 9.691802274961788 10.824220473961418 H 0.0 **** 0.06
26576 C 34.38429531526293 33.73547101507023 118.50185104027099 C 0.0 **** -0.24
26577 H 33.61231165190816 33.20893492155119 119.06324969560598 H 0.0 **** 0.06
26578 H 35.348285569223165 33.59416136078153 118.98961306078223 H 0.0 **** 0.06
26579 H 34.146087338207636 34.798387694368444 118.46702946182518 H 0.0 **** 0.06
26580 H 34.42875305298352 33.339144161210015 117.48689337367153 H 0.0 **** 0.06
26581 C 57.29553128247977 45.113448237815135 8.542079020583003 C 0.0 **** -0.24
26582 H 56.382402020763976 45.63843872543041 8.824439547975174 H 0.0 **** 0.06
26583 H 57.04274613095703 44.25760516206738 7.916984058941978 H 0.0 **** 0.06
26584 H 57.80895966000814 44.76907191231806 9.440446864215545 H 0.0 **** 0.06
26585 H 57.94646434614691 45.78954392330523 7.988645027478412 H 0.0 **** 0.06
26586 C 8.789327004184656 64.23733767941519 47.02988043087353 C 0.0 **** -0.24
26587 H 9.034582020877593 65.04457782992125 46.33925910064383 H 0.0 **** 0.06
26588 H 7.802248348667064 63.842393656241924 46.78990875707245 H 0.0 **** 0.06
26589 H 8.790006206976386 64.61989421092439 48.050964931150816 H 0.0 **** 0.06
26590 H 9.530818816938961 63.44412271266728 46.93894456781227 H 0.0 **** 0.06
26591 C 0.22665148055227746 109.08002760120776 66.28965401437335 C 0.0 **** -0.24
26592 H 1.1656190517612117 109.49789645551043 66.65308902211541 H 0.0 **** 0.06
26593 H -0.14271024053732617 109.68564620256096 65.46077246777259 H 0.0 **** 0.06
26594 H -0.5065969445619771 109.08027031172105 67.09543754162968 H 0.0 **** 0.06
26595 H 0.39094495594764567 108.05829390861972 65.9480557735805 H 0.0 **** 0.06
26596 C 67.21532214463089 113.66508011625876 29.903225742798327 C 0.0 **** -0.24
26597 H 68.22790610897229 113.679353877972 30.307831115880987 H 0.0 **** 0.06
26598 H 67.09279013367613 112.79139984663755 29.26311937627844 H 0.0 **** 0.06
26599 H 67.04427364365604 114.57048514900322 29.321093803326363 H 0.0 **** 0.06
26600 H 66.4985103267691 113.61889779950684 30.722899132047502 H 0.0 **** 0.06
26601 C 0.12154819913309112 92.84868704432064 82.94708061133363 C 0.0 **** -0.24
26602 H -0.6647201702928847 93.1678922792922 83.62973823311947 H 0.0 **** 0.06
26603 H 0.758939301484677 92.11682947140949 83.44369572189532 H 0.0 **** 0.06
26604 H 0.7202398689649634 93.71083837345405 82.65262542168793 H 0.0 **** 0.06
26605 H -0.3274461145439762 92.39938007051192 82.06112698099346 H 0.0 **** 0.06
26606 C 6.025162257838716 40.4161281743547 102.31070349620981 C 0.0 **** -0.24
26607 H 5.500585001215086 40.8763781027215 103.14760560311362 H 0.0 **** 0.06
26608 H 6.803676323790512 41.091040528697505 101.95456777674303 H 0.0 **** 0.06
26609 H 5.318899030916228 40.218335213513825 101.50437436474262 H 0.0 **** 0.06
26610 H 6.476183556578036 39.478663961239306 102.63572979609262 H 0.0 **** 0.06
26611 C 31.281464557431832 122.01659726932327 105.92117832788273 C 0.0 **** -0.24
26612 H 32.01431591331743 122.39343710278204 105.207064785049 H 0.0 **** 0.06
26613 H 30.46605339054048 121.53334624763085 105.38303100185715 H 0.0 **** 0.06
26614 H 30.88886862027175 122.84495875544593 106.50947591695393 H 0.0 **** 0.06
26615 H 31.758460273424816 121.2938734759584 106.58313744432002 H 0.0 **** 0.06
26616 C 110.60985060862978 14.234183238608011 90.36874768913881 C 0.0 **** -0.24
26617 H 111.65599567384254 14.264908701413049 90.06521699201005 H 0.0 **** 0.06
26618 H 110.40449224106538 15.060548781176465 91.0492191434067 H 0.0 **** 0.06
26619 H 110.4055808084843 13.288829337526295 90.87225475655461 H 0.0 **** 0.06
26620 H 109.97436079090025 14.321635555598732 89.48716485924061 H 0.0 **** 0.06
26621 C 86.47911810145376 5.025762192604617 88.04754851658276 C 0.0 **** -0.24
26622 H 85.60595343759276 5.207476494340142 88.67421258474856 H 0.0 **** 0.06
26623 H 86.6590714122981 5.895796077324093 87.41517965410635 H 0.0 **** 0.06
26624 H 86.30087638519296 4.151673793648484 87.42151592197996 H 0.0 **** 0.06
26625 H 87.34964197671133 4.848467750385026 88.67934227259492 H 0.0 **** 0.06
26626 C 7.418009708276912 33.44962206304223 7.509445949398412 C 0.0 **** -0.24
26627 H 6.6523404517374445 33.17738576521896 6.783596510474723 H 0.0 **** 0.06
26628 H 8.214436686148503 33.998989013701305 7.00801254368065 H 0.0 **** 0.06
26629 H 7.828192976917791 32.54652981596496 7.960642702483398 H 0.0 **** 0.06
26630 H 6.977068718303741 34.075583657283914 8.285532040954934 H 0.0 **** 0.06
26631 C 25.588825267965575 7.798729428152257 78.41933292910385 C 0.0 **** -0.24
26632 H 25.548091531734343 8.787816959531625 78.8752266341603 H 0.0 **** 0.06
26633 H 26.596970348693986 7.396340578666724 78.51463842698554 H 0.0 **** 0.06
26634 H 25.326031793554364 7.874137518745016 77.36454781569564 H 0.0 **** 0.06
26635 H 24.883184417112602 7.137586657414033 78.92276288163818 H 0.0 **** 0.06
26636 C 121.46649965416583 13.54664567375059 15.500495111937749 C 0.0 **** -0.24
26637 H 121.18326460452687 13.405865689297258 14.456686961579916 H 0.0 **** 0.06
26638 H 120.78000373158898 14.249643719030146 15.97121743781813 H 0.0 **** 0.06
26639 H 122.4820750391857 13.940695705621593 15.550881034561268 H 0.0 **** 0.06
26640 H 121.42218655883204 12.589258453135145 16.020870551907695 H 0.0 **** 0.06
26641 C 25.580648172712444 7.603155603647281 3.178799808233748 C 0.0 **** -0.24
26642 H 25.60398340154299 7.11454652279815 4.152234979836237 H 0.0 **** 0.06
26643 H 25.53784001984377 6.847436791124096 2.394146357784166 H 0.0 **** 0.06
26644 H 26.479407363286896 8.206311243217044 3.053170913381166 H 0.0 **** 0.06
26645 H 24.70099701500297 8.244508230921866 3.114292569979341 H 0.0 **** 0.06
26646 C 2.0038907978378973 33.324061227482304 105.07430235148942 C 0.0 **** -0.24
26647 H 2.8732171911763658 33.71038218998308 105.60735043744242 H 0.0 **** 0.06
26648 H 1.2215781926589102 34.08337595750476 105.0590498934175 H 0.0 **** 0.06
26649 H 1.6347919539890086 32.431749269425865 105.57895850012949 H 0.0 **** 0.06
26650 H 2.286471418973491 33.07415184478063 104.05216248569596 H 0.0 **** 0.06
26651 C 84.50443066901528 21.184709580630496 121.68024295185671 C 0.0 **** -0.24
26652 H 85.16514386042292 21.55980994548736 120.8990475656691 H 0.0 **** 0.06
26653 H 83.70918456946123 21.908400600430774 121.86082937229213 H 0.0 **** 0.06
26654 H 85.07332957397153 21.03424492609436 122.59714143642196 H 0.0 **** 0.06
26655 H 84.06890325248781 20.237220773139605 121.36297918576872 H 0.0 **** 0.06
26656 C 0.17979620552938513 59.585484887374434 17.40370437553151 C 0.0 **** -0.24
26657 H -0.5734142725513607 60.15801865572145 17.94591797384433 H 0.0 **** 0.06
26658 H -0.30959642451151126 58.94515582313858 16.669261689377493 H 0.0 **** 0.06
26659 H 0.7428433051067316 58.97034625904459 18.105860284255378 H 0.0 **** 0.06
26660 H 0.8585991335831977 60.26896417759026 16.894145660141554 H 0.0 **** 0.06
26661 C 25.097905435592594 116.80727246157417 44.86070665109667 C 0.0 **** -0.24
26662 H 24.42500238089673 117.66565729021532 44.863056112453194 H 0.0 **** 0.06
26663 H 25.007434882806933 116.27420103081676 45.807497248518345 H 0.0 **** 0.06
26664 H 26.12384247230139 117.15068110585362 44.73354892275926 H 0.0 **** 0.06
26665 H 24.83258072709191 116.14031170912159 44.04053373454367 H 0.0 **** 0.06
26666 C 90.83092229872946 45.18680433407275 115.74031886585425 C 0.0 **** -0.24
26667 H 91.6698793525097 44.64876467448889 115.29851361457702 H 0.0 **** 0.06
26668 H 89.98751972954554 45.17587477620356 115.04898523242105 H 0.0 **** 0.06
26669 H 91.12471986574181 46.2176842270392 115.93913820876233 H 0.0 **** 0.06
26670 H 90.54246005566247 44.70449456956817 116.67441699246879 H 0.0 **** 0.06
26671 C 100.5530167280564 106.62371915470356 109.53615562077545 C 0.0 **** -0.24
26672 H 100.06322666391165 106.22607534134008 110.42417446963276 H 0.0 **** 0.06
26673 H 101.31112842811937 107.34839435070727 109.83220113783608 H 0.0 **** 0.06
26674 H 99.81263285957809 107.11075181375405 108.90123640722948 H 0.0 **** 0.06
26675 H 101.02358297020733 105.80900493607808 108.98548090559171 H 0.0 **** 0.06
26676 C 13.383513160104144 20.51525421019315 34.33371066107162 C 0.0 **** -0.24
26677 H 13.935168904262099 19.98953693327988 33.5544560523079 H 0.0 **** 0.06
26678 H 13.421529703961909 21.588720731219297 34.14459186033862 H 0.0 **** 0.06
26679 H 13.830486754145426 20.300158309035567 35.30392289962529 H 0.0 **** 0.06
26680 H 12.34516877550692 20.18221373081451 34.33046987115358 H 0.0 **** 0.06
26681 C 87.64746305312758 117.26602859734453 126.24728471100144 C 0.0 **** -0.24
26682 H 87.63375122539829 116.1775353960141 126.2860908583647 H 0.0 **** 0.06
26683 H 86.71878122607954 117.6569517477995 126.66301975213185 H 0.0 **** 0.06
26684 H 87.74734137614247 117.59176475221523 125.2121379967557 H 0.0 **** 0.06
26685 H 88.49176858297521 117.63936460598654 126.82862452834127 H 0.0 **** 0.06
26686 C 30.697166936735584 115.06923238594709 87.4948413073173 C 0.0 **** -0.24
26687 H 30.27840832154544 114.61942479699007 86.59474475073202 H 0.0 **** 0.06
26688 H 29.887273058596065 115.40425778446468 88.143083063221 H 0.0 **** 0.06
26689 H 31.318191656644217 115.92159205160033 87.21982175941663 H 0.0 **** 0.06
26690 H 31.303411121685656 114.33188749008895 88.02153760622903 H 0.0 **** 0.06
26691 C 55.642586270531524 127.53995430548824 18.888849170894048 C 0.0 **** -0.24
26692 H 54.742574058061706 128.1547014373701 18.903390608827266 H 0.0 **** 0.06
26693 H 55.926224154987835 127.28659705470952 19.91041518989792 H 0.0 **** 0.06
26694 H 56.452719666459416 128.09444734678183 18.41295639105678 H 0.0 **** 0.06
26695 H 55.44920611297749 126.6265947841807 18.32676649128524 H 0.0 **** 0.06
26696 C 37.62491608452606 89.41563254705328 61.37038973706012 C 0.0 **** -0.24
26697 H 37.349441956008604 88.79889665191729 60.514261025047745 H 0.0 **** 0.06
26698 H 37.1577666016274 89.01483852640963 62.27020972339125 H 0.0 **** 0.06
26699 H 37.28301505874035 90.43694322056558 61.20601028492456 H 0.0 **** 0.06
26700 H 38.70775035880396 89.40862959576614 61.48913856111335 H 0.0 **** 0.06
26701 C 84.55288501003544 91.35175631133478 114.02119028700854 C 0.0 **** -0.24
26702 H 85.5302977241598 91.82837733568698 113.94826402739166 H 0.0 **** 0.06
26703 H 84.67565788825108 90.31922703975587 114.34792807895367 H 0.0 **** 0.06
26704 H 84.06699518985512 91.36999945110226 113.04614070545337 H 0.0 **** 0.06
26705 H 83.93898538857758 91.8907676677886 114.74260380749915 H 0.0 **** 0.06
26706 C 68.49490795322049 107.73420735351483 102.2740000842498 C 0.0 **** -0.24
26707 H 69.36823683592843 107.11625200612028 102.47919082738069 H 0.0 **** 0.06
26708 H 67.80924149550742 107.19020052802526 101.62483945847626 H 0.0 **** 0.06
26709 H 68.80843902498697 108.65532276375181 101.7819714474872 H 0.0 **** 0.06
26710 H 67.99303273965575 107.9767724685778 103.2112567002015 H 0.0 **** 0.06
26711 C 62.184071684972565 98.79814174678181 118.44165323695572 C 0.0 **** -0.24
26712 H 61.638436016951076 98.97249843753333 117.5143604430885 H 0.0 **** 0.06
26713 H 62.98656165373701 98.08205276898133 118.26171448557871 H 0.0 **** 0.06
26714 H 61.50452040699099 98.40108121645696 119.19449143986466 H 0.0 **** 0.06
26715 H 62.60869984203009 99.73836396642967 118.795569411249 H 0.0 **** 0.06
26716 C 101.85220699283627 11.386396075980372 40.04465611513271 C 0.0 **** -0.24
26717 H 101.89625950935476 11.741240486796414 41.073799558678274 H 0.0 **** 0.06
26718 H 102.35685711931231 12.099291147225244 39.39223189589558 H 0.0 **** 0.06
26719 H 100.80970191360743 11.287798600974838 39.74012001995814 H 0.0 **** 0.06
26720 H 102.34419964034231 10.415783816484407 39.97322355792434 H 0.0 **** 0.06
26721 C 42.16462128415811 30.084380026960048 122.54677325669729 C 0.0 **** -0.24
26722 H 41.19024600185781 30.32738635706903 122.12333355227031 H 0.0 **** 0.06
26723 H 42.88820759981087 29.95280702404034 121.74163729551987 H 0.0 **** 0.06
26724 H 42.09102680231315 29.162945350642673 123.12369215386519 H 0.0 **** 0.06
26725 H 42.49059629687679 30.895950574938354 123.19836061311105 H 0.0 **** 0.06
26726 C 105.80717521471465 64.15419029615924 67.58672992236887 C 0.0 **** -0.24
26727 H 106.84790159794565 64.33993317598106 67.85450728402529 H 0.0 **** 0.06
26728 H 105.74231906441014 63.239189388261536 66.99633378911906 H 0.0 **** 0.06
26729 H 105.42746751314212 64.99254424128122 67.00188357732165 H 0.0 **** 0.06
26730 H 105.2124105222765 64.04498950440268 68.49400753018406 H 0.0 **** 0.06
26731 C 0.6152965404824897 66.79153542897248 57.15488812235549 C 0.0 **** -0.24
26732 H -0.14284307827369958 66.04086979905 57.37834708079339 H 0.0 **** 0.06
26733 H 0.14701457750680902 67.6477626960241 56.67008372533712 H 0.0 **** 0.06
26734 H 1.365266590526403 66.36241219614286 56.489400540539464 H 0.0 **** 0.06
26735 H 1.0919867307841855 67.112523545411 58.080571928173356 H 0.0 **** 0.06
26736 C 69.73786075567682 0.6009330642844795 98.82745514341178 C 0.0 **** -0.24
26737 H 69.1488939170377 -0.19417674233363869 98.36935037919739 H 0.0 **** 0.06
26738 H 69.79646244229716 0.4347818669985468 99.90335993478294 H 0.0 **** 0.06
26739 H 69.26284380210316 1.5619117578767785 98.63269566306724 H 0.0 **** 0.06
26740 H 70.74240735941535 0.5981059486459017 98.40361834139429 H 0.0 **** 0.06
26741 C 71.49622904837275 25.637938263393657 24.401793447005588 C 0.0 **** -0.24
26742 H 70.75582433562579 25.602818482667118 23.603120242409645 H 0.0 **** 0.06
26743 H 70.99567753302898 25.536172722574456 25.365656781547926 H 0.0 **** 0.06
26744 H 72.02474552515788 26.59116272313409 24.365338001347226 H 0.0 **** 0.06
26745 H 72.20748185052948 24.821893079099915 24.273769294012368 H 0.0 **** 0.06
26746 C 58.416838678104384 88.92346247076566 75.16399873237201 C 0.0 **** -0.24
26747 H 58.64883267371974 87.92099622352445 74.8043423973094 H 0.0 **** 0.06
26748 H 58.68596677778443 89.65454815387444 74.40154462361608 H 0.0 **** 0.06
26749 H 58.98147250092332 89.12277793463112 76.0741698136167 H 0.0 **** 0.06
26750 H 57.34982708083341 88.99507116186109 75.37547433593357 H 0.0 **** 0.06
26751 C 45.66614859056719 49.94504078928196 101.96545207889183 C 0.0 **** -0.24
26752 H 46.223294619644896 50.681683992850935 101.38692244012587 H 0.0 **** 0.06
26753 H 44.688390523777436 49.78914094316565 101.51018859336591 H 0.0 **** 0.06
26754 H 45.53908165290578 50.306256346516705 102.98633886255485 H 0.0 **** 0.06
26755 H 46.21575186564587 49.00384073217549 101.97967049478954 H 0.0 **** 0.06
26756 C 99.7070130307792 79.6484611512069 103.43996555904604 C 0.0 **** -0.24
26757 H 99.92142783811187 78.58722424090203 103.31962894540422 H 0.0 **** 0.06
26758 H 98.96674680498688 79.78319162811925 104.22954403259152 H 0.0 **** 0.06
26759 H 99.31639333315832 80.04822600195087 102.50391010493331 H 0.0 **** 0.06
26760 H 100.62258263635658 80.17627036968989 103.70656110638984 H 0.0 **** 0.06
26761 C 110.32013102659977 100.95296666972621 26.89371669721681 C 0.0 **** -0.24
26762 H 109.76768880757572 101.42284101705383 27.70753742186168 H 0.0 **** 0.06
26763 H 109.77331009048271 100.07679456027194 26.54228265611198 H 0.0 **** 0.06
26764 H 111.30336077454012 100.6476474302163 27.25109166923248 H 0.0 **** 0.06
26765 H 110.43498290755349 101.66281847446572 26.074653865951433 H 0.0 **** 0.06
26766 C 52.25988463173037 21.912578514524782 104.47970935516624 C 0.0 **** -0.24
26767 H 52.921908020255046 21.054139746730876 104.37090069409746 H 0.0 **** 0.06
26768 H 52.843625150099655 22.788570009367163 104.76179153191849 H 0.0 **** 0.06
26769 H 51.518743062539315 21.704972550229606 105.25197449474824 H 0.0 **** 0.06
26770 H 51.75295971739642 22.10293406160619 103.53339154310227 H 0.0 **** 0.06
26771 C 107.27511518059282 117.52846859006829 26.310493084969153 C 0.0 **** -0.24
26772 H 108.25184358821701 117.96135889614618 26.092713126145156 H 0.0 **** 0.06
26773 H 106.53793074951403 118.32482075908155 26.409461607885476 H 0.0 **** 0.06
26774 H 107.32852439104556 116.964862942607 27.242323348325442 H 0.0 **** 0.06
26775 H 106.98456470026935 116.86211008751388 25.499119459478038 H 0.0 **** 0.06
26776 C 117.39212731382342 45.30938730839052 42.05602860154747 C 0.0 **** -0.24
26777 H 116.71216209914277 44.72911686981543 41.43136144199846 H 0.0 **** 0.06
26778 H 117.79622271950379 44.671444308541915 42.84250310278091 H 0.0 **** 0.06
26779 H 116.8499005439244 46.1409639833847 42.505919503537456 H 0.0 **** 0.06
26780 H 118.20818387393112 45.69513368573266 41.44454440387889 H 0.0 **** 0.06
26781 C 54.02367198602582 20.812710014253128 119.46633390708075 C 0.0 **** -0.24
26782 H 53.379757072881716 21.571265405099865 119.02261135043227 H 0.0 **** 0.06
26783 H 54.651514966498496 21.27253950885364 120.23017325677142 H 0.0 **** 0.06
26784 H 54.653865015633244 20.37349664144992 118.69366595101667 H 0.0 **** 0.06
26785 H 53.409701173320855 20.035385963347494 119.92048651803208 H 0.0 **** 0.06
26786 C 121.07609197118686 63.34319176007989 79.98156990497563 C 0.0 **** -0.24
26787 H 122.05810834020124 62.873553986630384 80.04550528483688 H 0.0 **** 0.06
26788 H 120.30342263900926 62.58950991065524 80.13132038996454 H 0.0 **** 0.06
26789 H 120.95451463692203 63.79837962171001 78.9987055062381 H 0.0 **** 0.06
26790 H 120.9908305624287 64.11004984985448 80.75104283778145 H 0.0 **** 0.06
26791 C 3.8243629992391135 29.08853574626474 12.455898948469212 C 0.0 **** -0.24
26792 H 4.015928928444879 28.773161324877123 13.481731274174024 H 0.0 **** 0.06
26793 H 2.8872528856997803 28.652324936568505 12.110400440942414 H 0.0 **** 0.06
26794 H 4.640417165229806 28.75335887624354 11.815813385635721 H 0.0 **** 0.06
26795 H 3.7558530659478606 30.17607559088796 12.417493345872032 H 0.0 **** 0.06
26796 C 61.70534440944522 7.689394386179401 103.92708879743424 C 0.0 **** -0.24
26797 H 62.643283885873075 7.865554070810049 103.40117175863266 H 0.0 **** 0.06
26798 H 61.1800726319878 6.855144881267194 103.46181166740801 H 0.0 **** 0.06
26799 H 61.08592524459601 8.584719032478432 103.87296715740192 H 0.0 **** 0.06
26800 H 61.912350864019345 7.451774791202695 104.97021663614831 H 0.0 **** 0.06
26801 C 81.74755223780771 89.27068034122492 90.93483853290817 C 0.0 **** -0.24
26802 H 80.83650587748689 89.49907340588477 91.4876998097748 H 0.0 **** 0.06
26803 H 82.59718240264547 89.27395779874807 91.61848345189946 H 0.0 **** 0.06
26804 H 81.90121493243895 90.02197069061027 90.16094125723669 H 0.0 **** 0.06
26805 H 81.65604538827213 88.28750202956046 90.4737806788402 H 0.0 **** 0.06
26806 C 92.91923166246791 59.76809441383028 117.61297481643209 C 0.0 **** -0.24
26807 H 93.2254448152728 59.7240023165331 118.65799053065331 H 0.0 **** 0.06
26808 H 91.981821008326 59.227026135835104 117.485790582057 H 0.0 **** 0.06
26809 H 93.68916792062845 59.31205260009796 116.98977215984667 H 0.0 **** 0.06
26810 H 92.7827784238641 60.807924611863825 117.31696956637302 H 0.0 **** 0.06
26811 C 63.17781398746138 59.67151152400672 34.78772241783585 C 0.0 **** -0.24
26812 H 62.75278365001424 58.80598198469549 35.296969269235234 H 0.0 **** 0.06
26813 H 62.559889666022485 60.547546367763545 34.98398738548161 H 0.0 **** 0.06
26814 H 63.20918507760959 59.48192251717812 33.71479216235633 H 0.0 **** 0.06
26815 H 64.18750656000009 59.849115282504755 35.15562483274806 H 0.0 **** 0.06
26816 C 85.88436047745984 46.20331857197763 98.366146611006 C 0.0 **** -0.24
26817 H 85.44485414696472 46.80999301580093 97.57441637175532 H 0.0 **** 0.06
26818 H 86.92226706924397 46.50087113212675 98.51780704985538 H 0.0 **** 0.06
26819 H 85.8460634036884 45.15137861646613 98.08137267985114 H 0.0 **** 0.06
26820 H 85.32522401010318 46.34972700327623 99.28945282546681 H 0.0 **** 0.06
26821 C 2.211780802975312 7.130831747080208 54.77142994662414 C 0.0 **** -0.24
26822 H 3.286817468245431 7.018035890236263 54.91154679160846 H 0.0 **** 0.06
26823 H 1.8893073758053163 6.520344250072242 53.92750671640438 H 0.0 **** 0.06
26824 H 1.9796293972742944 8.177731037967476 54.57206807689201 H 0.0 **** 0.06
26825 H 1.692505038178524 6.808538604089904 55.67287776501563 H 0.0 **** 0.06
26826 C 116.0490652331269 29.508647040408135 102.32344522139408 C 0.0 **** -0.24
26827 H 116.85675336623808 28.782032834253727 102.4047537672469 H 0.0 **** 0.06
26828 H 115.99429994804703 29.87808376201204 101.2988307524788 H 0.0 **** 0.06
26829 H 116.2404568547783 30.341074830853856 103.00092637641175 H 0.0 **** 0.06
26830 H 115.10475076344431 29.033396734512706 102.58926998943873 H 0.0 **** 0.06
26831 C 11.338744739764223 69.8188303469916 55.19592508020372 C 0.0 **** -0.24
26832 H 11.670943787063717 70.75055538678049 55.655571471042975 H 0.0 **** 0.06
26833 H 12.129742776745537 69.07353093198242 55.27368307904456 H 0.0 **** 0.06
26834 H 11.105779137015183 69.99489243590159 54.14561624173214 H 0.0 **** 0.06
26835 H 10.44751987733476 69.45866436178022 55.7107330338566 H 0.0 **** 0.06
26836 C 120.7642721761311 84.59261220436952 126.45888832882991 C 0.0 **** -0.24
26837 H 120.88920645351652 84.49588534458127 125.38045622445117 H 0.0 **** 0.06
26838 H 119.75857449253499 84.27757627539077 126.73786507472158 H 0.0 **** 0.06
26839 H 120.91272207115162 85.63305422026133 126.7494508163906 H 0.0 **** 0.06
26840 H 121.49604990746383 83.96522538298643 126.96757446504222 H 0.0 **** 0.06
26841 C 7.375245128732104 79.30015260089363 41.71270086002828 C 0.0 **** -0.24
26842 H 8.42200929915299 78.99729042481863 41.73203288951534 H 0.0 **** 0.06
26843 H 6.767307943527442 78.531878014331 42.191154666001296 H 0.0 **** 0.06
26844 H 7.052457585383763 79.42813090973615 40.67949506108533 H 0.0 **** 0.06
26845 H 7.259933435979804 80.24203473475939 42.24903818740245 H 0.0 **** 0.06
26846 C 86.22353320326383 1.2827419883717255 60.801429150182315 C 0.0 **** -0.24
26847 H 85.95122776554372 0.24685706788781658 61.00482943642061 H 0.0 **** 0.06
26848 H 86.34432276874867 1.8182829436463805 61.742884520895174 H 0.0 **** 0.06
26849 H 85.43927062136171 1.755606545688778 60.211066776699994 H 0.0 **** 0.06
26850 H 87.1619077045305 1.3080510049000793 60.24569060852036 H 0.0 **** 0.06
26851 C 9.989074992800155 9.507711103932763 62.994952212417104 C 0.0 **** -0.24
26852 H 9.733166237077654 10.16773198148121 62.166180462950194 H 0.0 **** 0.06
26853 H 9.84400126109064 10.03505902577399 63.93733281608513 H 0.0 **** 0.06
26854 H 11.031250543309426 9.201006385110247 62.90514789194094 H 0.0 **** 0.06
26855 H 9.348026132154132 8.626446791670674 62.968211791924034 H 0.0 **** 0.06
26856 C 38.03191643841055 10.237083973679717 115.64541099136514 C 0.0 **** -0.24
26857 H 38.73053349517693 10.100413652400903 116.47138614232055 H 0.0 **** 0.06
26858 H 37.23264963287596 10.911005529559134 115.95537846432586 H 0.0 **** 0.06
26859 H 37.60704719425573 9.273705076248348 115.36524204351859 H 0.0 **** 0.06
26860 H 38.55780474804604 10.664451540298899 114.79215260680068 H 0.0 **** 0.06
26861 C 26.759840803552372 13.038484616386881 89.19172169171208 C 0.0 **** -0.24
26862 H 26.154224421962788 13.568112969519174 89.92730315547158 H 0.0 **** 0.06
26863 H 27.72796428688838 13.530132307186246 89.09681683218707 H 0.0 **** 0.06
26864 H 26.25080552785893 13.04672485761446 88.22803572446207 H 0.0 **** 0.06
26865 H 26.905675432559704 12.0074853777422 89.51625425009371 H 0.0 **** 0.06
26866 C 64.99167053060363 78.60291318432236 97.90261494655438 C 0.0 **** -0.24
26867 H 65.50032719078375 78.41110674670318 98.84808109419055 H 0.0 **** 0.06
26868 H 64.23455734136948 77.83680174269404 97.73644236093884 H 0.0 **** 0.06
26869 H 65.71748238651027 78.5801170178736 97.08986286732095 H 0.0 **** 0.06
26870 H 64.51668281542483 79.58307216452484 97.93832888672115 H 0.0 **** 0.06
26871 C 45.06139672749899 19.76876679687433 113.26994577120662 C 0.0 **** -0.24
26872 H 45.381414144879926 18.772270609319264 112.96390373984174 H 0.0 **** 0.06
26873 H 45.289312061531035 19.913015327903565 114.3263654175182 H 0.0 **** 0.06
26874 H 43.98828269687374 19.869863525836024 113.11202451955207 H 0.0 **** 0.06
26875 H 45.58839802656459 20.5166884885557 112.6779996496587 H 0.0 **** 0.06
26876 C 121.89590456851509 44.72150246008334 35.826633682989474 C 0.0 **** -0.24
26877 H 121.35510926574901 44.94416819117632 34.906716353712355 H 0.0 **** 0.06
26878 H 122.13482740756712 43.657982767359584 35.8583238884977 H 0.0 **** 0.06
26879 H 121.275528738732 44.97999507054227 36.684431349216695 H 0.0 **** 0.06
26880 H 122.81746938252466 45.30211034174664 35.85638607017406 H 0.0 **** 0.06
26881 C 34.09629105008588 106.04687046370485 18.306292994604526 C 0.0 **** -0.24
26882 H 34.03691897052934 106.48377045276204 17.308415276213836 H 0.0 **** 0.06
26883 H 34.55784424635419 105.06056236165452 18.244192001068782 H 0.0 **** 0.06
26884 H 33.09219776324889 105.95295958631472 18.720453486694637 H 0.0 **** 0.06
26885 H 34.696676665130184 106.69014971868614 18.949528860045277 H 0.0 **** 0.06
26886 C 69.32631381415342 8.246688000567303 55.59777169352947 C 0.0 **** -0.24
26887 H 68.84411774852391 8.721634966915417 54.74326668343626 H 0.0 **** 0.06
26888 H 69.39861571251373 7.172586498563703 55.42341018157312 H 0.0 **** 0.06
26889 H 68.73631613920578 8.430210504927942 56.495730325026344 H 0.0 **** 0.06
26890 H 70.32574155069977 8.661055026870201 55.728250072504 H 0.0 **** 0.06
26891 C 1.6124300729163679 128.65637169520778 3.6844646424101626 C 0.0 **** -0.24
26892 H 1.570896716190731 129.5985744138097 3.138445907114427 H 0.0 **** 0.06
26893 H 1.5748457147608974 128.8552110796294 4.7556461398107075 H 0.0 **** 0.06
26894 H 2.539450928091668 128.1372876709461 3.4422466724817724 H 0.0 **** 0.06
26895 H 0.7633210844060443 128.0346513992444 3.3994009530874436 H 0.0 **** 0.06
26896 C 81.06456449829977 28.587296986038723 127.1353975214985 C 0.0 **** -0.24
26897 H 81.32089251755025 28.621636434348602 126.0766939756414 H 0.0 **** 0.06
26898 H 81.59128532489245 29.382207048897556 127.66283623757485 H 0.0 **** 0.06
26899 H 81.35570579802067 27.621151586845826 127.54868595770259 H 0.0 **** 0.06
26900 H 79.98934048089114 28.723231545626447 127.25328984043753 H 0.0 **** 0.06
26901 C 43.672356721545185 106.41324176618991 29.148750127903895 C 0.0 **** -0.24
26902 H 44.08175416058367 107.36905509744989 29.47660850351724 H 0.0 **** 0.06
26903 H 44.22694121044863 105.60015104236166 29.61833190975605 H 0.0 **** 0.06
26904 H 43.75856548129798 106.33434855437795 28.065280538893802 H 0.0 **** 0.06
26905 H 42.62298489483109 106.35011754362998 29.436737230870676 H 0.0 **** 0.06
26906 C 21.1967550151452 88.82455793167875 85.42751737119302 C 0.0 **** -0.24
26907 H 21.15199119269444 89.6561978050726 84.72447912257024 H 0.0 **** 0.06
26908 H 22.18897555432988 88.37331017600505 85.3934380435901 H 0.0 **** 0.06
26909 H 20.448700666090296 88.0789725258104 85.15623962155385 H 0.0 **** 0.06
26910 H 20.99695462063663 89.18951248478189 86.43502690014546 H 0.0 **** 0.06
26911 C 108.2956368853184 3.0432208753558037 84.9247368334405 C 0.0 **** -0.24
26912 H 107.35397185575215 3.253426452941209 84.41802189066803 H 0.0 **** 0.06
26913 H 108.10939737233406 2.3991565308419496 85.78453475747361 H 0.0 **** 0.06
26914 H 108.74395921919654 3.978452546698893 85.26070007400804 H 0.0 **** 0.06
26915 H 108.97496770906218 2.5418520966241296 84.23472270431009 H 0.0 **** 0.06
26916 C 102.60017052956789 22.0946741332219 18.110001169490793 C 0.0 **** -0.24
26917 H 101.89032361350905 22.492890148634785 18.83584061286932 H 0.0 **** 0.06
26918 H 102.85506444527843 21.06883652265816 18.3773226907622 H 0.0 **** 0.06
26919 H 103.50236187044484 22.70599274404222 18.112606120146282 H 0.0 **** 0.06
26920 H 102.15277979323506 22.111693485065643 17.11714456624309 H 0.0 **** 0.06
26921 C 16.493921654667446 72.58452845554872 114.5705448734703 C 0.0 **** -0.24
26922 H 17.36577436766342 72.29231953200006 115.15416474194596 H 0.0 **** 0.06
26923 H 16.69029384739349 73.53506398177267 114.07462992121596 H 0.0 **** 0.06
26924 H 15.633018898596845 72.68984795624398 115.23082490749881 H 0.0 **** 0.06
26925 H 16.285635790202377 71.82038076691431 113.82165450736092 H 0.0 **** 0.06
26926 C 47.51486356294504 70.30084203386996 118.43992481848674 C 0.0 **** -0.24
26927 H 47.58646069813699 69.87664257293834 119.44079097567582 H 0.0 **** 0.06
26928 H 47.471889485723075 71.38838958805671 118.50801358042561 H 0.0 **** 0.06
26929 H 46.61188349037718 69.93136809419131 117.95337729292666 H 0.0 **** 0.06
26930 H 48.387844464200995 70.00710312659663 117.85722055389255 H 0.0 **** 0.06
26931 C 25.02627986888237 91.26968413449042 43.79840225398863 C 0.0 **** -0.24
26932 H 25.105049989233436 90.84304200949958 42.79872170187582 H 0.0 **** 0.06
26933 H 24.386855734829652 90.63579385605927 44.41403481470033 H 0.0 **** 0.06
26934 H 24.595059005862282 92.26879447017254 43.73521540721251 H 0.0 **** 0.06
26935 H 26.018531911712074 91.33046814531386 44.24720259430458 H 0.0 **** 0.06
26936 C 33.697854813175496 78.61686290768688 114.63266390947791 C 0.0 **** -0.24
26937 H 32.724282444041165 78.26967136380819 114.28593293044264 H 0.0 **** 0.06
26938 H 34.05481216987961 77.96196267007087 115.42768127320716 H 0.0 **** 0.06
26939 H 33.605440867339965 79.63471411539712 115.01405892610404 H 0.0 **** 0.06
26940 H 34.40502901657365 78.60249238530668 113.80377696785575 H 0.0 **** 0.06
26941 C 26.71165512969324 12.09326285953594 111.00786143363803 C 0.0 **** -0.24
26942 H 27.407555213650653 12.397810938202085 110.22632576904795 H 0.0 **** 0.06
26943 H 26.47671863807919 12.951231723022431 111.63887238516361 H 0.0 **** 0.06
26944 H 27.166726913659062 11.310457585984707 111.61462171651203 H 0.0 **** 0.06
26945 H 25.795807653863562 11.715013759258312 110.55253457453966 H 0.0 **** 0.06
26946 C 61.41619712572978 76.15136783483874 22.979778986934505 C 0.0 **** -0.24
26947 H 62.18913249691107 76.26193696039402 22.219467978780422 H 0.0 **** 0.06
26948 H 60.50063277436331 75.78359973756463 22.516217738060305 H 0.0 **** 0.06
26949 H 61.22496939914592 77.1178289377805 23.446267325132318 H 0.0 **** 0.06
26950 H 61.75097491107721 75.44177957898901 23.737375774102617 H 0.0 **** 0.06
26951 C 102.39361040767872 65.25777197944976 99.56417419315525 C 0.0 **** -0.24
26952 H 102.17186208685081 64.77144484961875 100.51364458398717 H 0.0 **** 0.06
26953 H 102.13598896372262 64.58759923971238 98.7442503296883 H 0.0 **** 0.06
26954 H 103.4554656565649 65.4985926345228 99.51829079657475 H 0.0 **** 0.06
26955 H 101.80977194319831 66.17512598117443 99.48111505871063 H 0.0 **** 0.06
26956 C 25.65144380393148 10.425465762133157 121.14290845701731 C 0.0 **** -0.24
26957 H 25.77544449443166 9.439933119976274 121.59095049737252 H 0.0 **** 0.06
26958 H 24.999593294699388 11.031895482420964 121.77262620300208 H 0.0 **** 0.06
26959 H 25.205121433048028 10.32167696770341 120.15328895169789 H 0.0 **** 0.06
26960 H 26.624167964619375 10.909733906307636 121.05335078606302 H 0.0 **** 0.06
26961 C 23.552221768383816 30.522255035176116 68.02279611101613 C 0.0 **** -0.24
26962 H 23.157814859118673 30.65619029496669 67.01608267499854 H 0.0 **** 0.06
26963 H 22.82082708048503 29.989778216311535 68.63168918873038 H 0.0 **** 0.06
26964 H 23.754112950441908 31.49735300768495 68.4670892720531 H 0.0 **** 0.06
26965 H 24.475834863433136 29.94504455486573 67.97844087222524 H 0.0 **** 0.06
26966 C 78.27464540053325 66.68082845881251 33.16319100241275 C 0.0 **** -0.24
26967 H 77.56858920237684 67.16725639170338 32.48993919425157 H 0.0 **** 0.06
26968 H 79.24377784352683 66.59372623202458 32.671874419203846 H 0.0 **** 0.06
26969 H 77.90557787292916 65.68662947540112 33.41855957757806 H 0.0 **** 0.06
26970 H 78.37789657447635 67.2743683269583 34.07154560673317 H 0.0 **** 0.06
26971 C 36.60373909564839 120.27849170109745 96.20797255311693 C 0.0 **** -0.24
26972 H 36.58515432272213 121.34914952736149 96.00213051049566 H 0.0 **** 0.06
26973 H 35.995011846213515 120.06817763370272 97.08871470150126 H 0.0 **** 0.06
26974 H 37.62955156809849 119.96181629947935 96.39115503234078 H 0.0 **** 0.06
26975 H 36.202691035828806 119.73722510595226 95.3512098191572 H 0.0 **** 0.06
26976 C 9.252881518284585 95.9334864907076 119.98815526946073 C 0.0 **** -0.24
26977 H 10.149682673812581 96.03886345942146 119.37726503690493 H 0.0 **** 0.06
26978 H 8.555163422640742 96.73705146368258 119.7514417538059 H 0.0 **** 0.06
26979 H 9.524438988034866 95.98604594089346 121.0427616168374 H 0.0 **** 0.06
26980 H 8.784598400913218 94.97134373020583 119.78097493621964 H 0.0 **** 0.06
26981 C 98.01453050818895 21.71843092430536 39.168425643118496 C 0.0 **** -0.24
26982 H 98.54512904279795 21.163938170304228 39.94157658267835 H 0.0 **** 0.06
26983 H 98.68246057143745 21.892230820024054 38.323616430999095 H 0.0 **** 0.06
26984 H 97.68036450791448 22.674171818343474 39.57062811535042 H 0.0 **** 0.06
26985 H 97.15082711537974 21.14240621837999 38.835980958194455 H 0.0 **** 0.06
26986 C 52.03198994160732 71.43164852920513 75.07292733194673 C 0.0 **** -0.24
26987 H 51.142103738248096 71.08351007668644 74.54729466125947 H 0.0 **** 0.06
26988 H 52.30547449292649 72.42144839109223 74.70737856033999 H 0.0 **** 0.06
26989 H 52.85358710175427 70.73757751204285 74.89408372715282 H 0.0 **** 0.06
26990 H 51.82560646816788 71.48259857013043 76.14174461967494 H 0.0 **** 0.06
26991 C 88.49228593801647 50.202519348153885 121.12085190792892 C 0.0 **** -0.24
26992 H 87.76456313779741 50.05694066340817 120.3227242086973 H 0.0 **** 0.06
26993 H 89.34131709844382 49.53713921675106 120.96397347023633 H 0.0 **** 0.06
26994 H 88.02840918087338 49.980450612949454 122.08098065047548 H 0.0 **** 0.06
26995 H 88.83575523446751 51.238068541668554 121.11404696453951 H 0.0 **** 0.06
26996 C 28.76729447456148 68.69804692758115 14.083230814537899 C 0.0 **** -0.24
26997 H 29.824576639437794 68.93934482145633 14.19208488959714 H 0.0 **** 0.06
26998 H 28.344521295479808 68.46951855876515 15.062384113526434 H 0.0 **** 0.06
26999 H 28.658118186772413 67.83356562699836 13.429718772295871 H 0.0 **** 0.06
27000 H 28.24334469938134 69.54985027200931 13.650755253830596 H 0.0 **** 0.06
27001 C 21.76560812018805 72.55421692964939 57.79150501886126 C 0.0 **** -0.24
27002 H 22.808482806720136 72.38087687742248 58.05904594328065 H 0.0 **** 0.06
27003 H 21.24871537354923 73.02006930771252 58.63021825585221 H 0.0 **** 0.06
27004 H 21.28853803841872 71.60439327543472 57.551981370018 H 0.0 **** 0.06
27005 H 21.719249676421626 73.21342883911011 56.92384258241823 H 0.0 **** 0.06
27006 C 17.057738645215636 113.90672612756508 122.19510983827023 C 0.0 **** -0.24
27007 H 16.67223381861976 114.16532020689054 121.20817079226808 H 0.0 **** 0.06
27008 H 18.10662309588747 114.1947688330598 122.26186498461738 H 0.0 **** 0.06
27009 H 16.965120082950847 112.83160379290966 122.34942201195571 H 0.0 **** 0.06
27010 H 16.48540758141033 114.43414551486653 122.9577567891347 H 0.0 **** 0.06
27011 C 40.65581231103499 65.67195324839628 38.9758397382914 C 0.0 **** -0.24
27012 H 40.22702927546217 64.75174470078628 39.37285965714824 H 0.0 **** 0.06
27013 H 40.015742379371176 66.51414273858563 39.24154614975103 H 0.0 **** 0.06
27014 H 40.72913079816567 65.59942739602548 37.890729665687786 H 0.0 **** 0.06
27015 H 41.64849951696954 65.82129004963417 39.39888231516085 H 0.0 **** 0.06
27016 C 125.8123514892916 80.33404378935201 96.67365239507146 C 0.0 **** -0.24
27017 H 125.5826565126747 79.78622537497839 95.7591543185009 H 0.0 **** 0.06
27018 H 124.88636931654409 80.57475469650457 97.1950156986713 H 0.0 **** 0.06
27019 H 126.33741998753375 81.25556082530883 96.42154742973167 H 0.0 **** 0.06
27020 H 126.44324563083674 79.71947355383377 97.31530139586879 H 0.0 **** 0.06
27021 C 56.63553233193588 61.598867289319955 112.78622989656834 C 0.0 **** -0.24
27022 H 56.83095190819968 60.53773113358734 112.62499145506273 H 0.0 **** 0.06
27023 H 55.57121635503633 61.74715880323855 112.97205687075503 H 0.0 **** 0.06
27024 H 56.9328109139105 62.16050032706532 111.90145356144964 H 0.0 **** 0.06
27025 H 57.20759683523221 61.945539118715686 113.64597941406468 H 0.0 **** 0.06
27026 C 103.86699939668787 79.28663392076791 102.49982673781135 C 0.0 **** -0.24
27027 H 103.5744608789646 78.34318528967066 102.96156411882829 H 0.0 **** 0.06
27028 H 102.97405168649342 79.83522620190485 102.19898889891816 H 0.0 **** 0.06
27029 H 104.48328411269236 79.08524945371937 101.6237508838028 H 0.0 **** 0.06
27030 H 104.4349526330489 79.88094541680266 103.21585149793904 H 0.0 **** 0.06
27031 C 11.50712400199157 6.037185687036043 118.35740301078829 C 0.0 **** -0.24
27032 H 11.61409178993378 5.360415765361296 119.20586568222583 H 0.0 **** 0.06
27033 H 11.179843863432666 5.473115202661319 117.48341689692123 H 0.0 **** 0.06
27034 H 12.465113676656586 6.510625725505776 118.1474347657794 H 0.0 **** 0.06
27035 H 10.766835914299435 6.801468058622419 118.59410425238755 H 0.0 **** 0.06
27036 C 95.95223706672171 70.30026638176994 129.62588062405382 C 0.0 **** -0.24
27037 H 95.09712866243953 69.6472928190907 129.4539836816582 H 0.0 **** 0.06
27038 H 96.02900891516875 70.52596795399978 130.68978399752655 H 0.0 **** 0.06
27039 H 95.82149027411239 71.22503629351883 129.06571078972468 H 0.0 **** 0.06
27040 H 96.86295685331261 69.80006808979849 129.29386901896783 H 0.0 **** 0.06
27041 C 100.27850524327624 57.4713038158078 74.99294904134996 C 0.0 **** -0.24
27042 H 99.20164882269083 57.606616861755896 75.0972281759452 H 0.0 **** 0.06
27043 H 100.77190201369996 57.7513410492882 75.92343827843837 H 0.0 **** 0.06
27044 H 100.64651884008667 58.09987472322018 74.18184541382495 H 0.0 **** 0.06
27045 H 100.49286859269479 56.42615925367946 74.76745907369973 H 0.0 **** 0.06
27046 C 9.796746753859026 80.1434634439234 123.86703973845218 C 0.0 **** -0.24
27047 H 10.73807211489219 80.57065292011154 123.52044744226285 H 0.0 **** 0.06
27048 H 9.808246829773395 79.0647089214167 123.70978540823415 H 0.0 **** 0.06
27049 H 8.970689150116783 80.58392331864715 123.30906717486067 H 0.0 **** 0.06
27050 H 9.672139493556415 80.35493780961917 124.92930153458929 H 0.0 **** 0.06
27051 C 64.8031401235686 38.99006799153389 41.24150679227006 C 0.0 **** -0.24
27052 H 64.1774330153696 38.19095232327635 41.638724894270155 H 0.0 **** 0.06
27053 H 64.19494767428155 39.656715537236664 40.62925886576713 H 0.0 **** 0.06
27054 H 65.59749835855185 38.56047668834573 40.631550442763455 H 0.0 **** 0.06
27055 H 65.24146447282853 39.552243821406705 42.0657819542522 H 0.0 **** 0.06
27056 C 24.097708799872237 82.37436774745245 122.48885060114071 C 0.0 **** -0.24
27057 H 23.587494063617783 82.39958370068352 121.52655049968422 H 0.0 **** 0.06
27058 H 23.703931730060418 83.16341797521959 123.12975842989721 H 0.0 **** 0.06
27059 H 25.166138030432023 82.52831985354119 122.33817814470933 H 0.0 **** 0.06
27060 H 23.933736851216423 81.40524298743611 122.96189601930126 H 0.0 **** 0.06
27061 C 83.75910306556365 124.77568595099149 61.72585126418356 C 0.0 **** -0.24
27062 H 84.8317507310369 124.72941979129901 61.53914328825219 H 0.0 **** 0.06
27063 H 83.58028843835538 125.20385857514742 62.71177669791433 H 0.0 **** 0.06
27064 H 83.3385719647962 123.7709482902089 61.68375260948835 H 0.0 **** 0.06
27065 H 83.28539698552551 125.39997268435452 60.967083715960925 H 0.0 **** 0.06
27066 C 67.33032109327596 95.79214414329671 126.40697335457246 C 0.0 **** -0.24
27067 H 66.83991813152667 96.51642477530274 125.75591343517993 H 0.0 **** 0.06
27068 H 68.40174900380838 95.79291774430122 126.20786264213936 H 0.0 **** 0.06
27069 H 66.92503288114074 94.79938890609557 126.21487469083235 H 0.0 **** 0.06
27070 H 67.15288937076025 96.0624754782841 127.44814310557491 H 0.0 **** 0.06
27071 C 118.89027066090938 78.04761920641397 118.32275631159379 C 0.0 **** -0.24
27072 H 117.95964483973512 78.19662694013161 118.87125955044638 H 0.0 **** 0.06
27073 H 119.56404278684124 78.88267263726624 118.51821586516049 H 0.0 **** 0.06
27074 H 118.67743340433066 77.994418396788 117.25488906033648 H 0.0 **** 0.06
27075 H 119.35867021439401 77.11784245271332 118.64626294317105 H 0.0 **** 0.06
27076 C 21.26281571036884 76.12972280562397 25.178045988323163 C 0.0 **** -0.24
27077 H 21.173656934291955 77.20791586466282 25.308114695617917 H 0.0 **** 0.06
27078 H 21.148043501011784 75.6371248515022 26.143525174064564 H 0.0 **** 0.06
27079 H 22.24245610024417 75.89399292928607 24.76361681372157 H 0.0 **** 0.06
27080 H 20.48612520981527 75.78157691440592 24.496641694586117 H 0.0 **** 0.06
27081 C 47.04631560688557 48.73182262121378 67.31285159431474 C 0.0 **** -0.24
27082 H 47.52839619877511 49.00488931426726 66.37501937911622 H 0.0 **** 0.06
27083 H 45.9715120121549 48.89705283274701 67.23074956330925 H 0.0 **** 0.06
27084 H 47.44803862378336 49.34568551888313 68.11920849296564 H 0.0 **** 0.06
27085 H 47.236944405922884 47.68014098392455 67.52770710087373 H 0.0 **** 0.06
27086 C 30.349324415513877 122.76401839095212 44.50719006927802 C 0.0 **** -0.24
27087 H 30.03646975719947 122.08273795204906 43.71550109335729 H 0.0 **** 0.06
27088 H 30.977067130194797 123.5484024081011 44.084335166570916 H 0.0 **** 0.06
27089 H 30.913939059673496 122.21311093988196 45.25938868200659 H 0.0 **** 0.06
27090 H 29.46851947939905 123.21141302888915 44.96916544170971 H 0.0 **** 0.06
27091 C 99.43118715003604 128.30848253596702 110.29454546252722 C 0.0 **** -0.24
27092 H 99.91072637614062 127.83704369932092 109.43784895041617 H 0.0 **** 0.06
27093 H 100.18650450734336 128.79789435565715 110.90984234941862 H 0.0 **** 0.06
27094 H 98.91569440819072 127.55122892938671 110.88513725924922 H 0.0 **** 0.06
27095 H 98.71095702588329 129.04884521302 109.94563405171539 H 0.0 **** 0.06
27096 C 19.410526479398868 21.100456083110146 84.12178448048911 C 0.0 **** -0.24
27097 H 20.37273246784548 20.889786989686968 84.58980980439445 H 0.0 **** 0.06
27098 H 18.62344277554689 20.56568846323529 84.65359865551656 H 0.0 **** 0.06
27099 H 19.43391009455732 20.77412372770118 83.08200716098952 H 0.0 **** 0.06
27100 H 19.21413092519606 22.171644411465707 84.16217997129554 H 0.0 **** 0.06
27101 C 11.602104132022063 39.35115833396913 46.12196455960725 C 0.0 **** -0.24
27102 H 11.753916974051961 38.62501948011279 45.32342358419573 H 0.0 **** 0.06
27103 H 10.849651171441067 38.97697844929706 46.81610894066488 H 0.0 **** 0.06
27104 H 11.265409146111097 40.29590003093352 45.694305675992204 H 0.0 **** 0.06
27105 H 12.541359712416607 39.50767120988454 46.652821571074966 H 0.0 **** 0.06
27106 C 114.57821450523113 93.00965325308698 52.690108539831684 C 0.0 **** -0.24
27107 H 115.33666855940231 92.64516468612436 51.996656269636134 H 0.0 **** 0.06
27108 H 114.03064922316878 93.83262049295183 52.229612380479 H 0.0 **** 0.06
27109 H 115.05977055232455 93.35896724042573 53.60391378669182 H 0.0 **** 0.06
27110 H 113.88699248059726 92.20115470124347 52.93017046744474 H 0.0 **** 0.06
27111 C 22.638418795023824 96.34500406525368 14.242940403976945 C 0.0 **** -0.24
27112 H 22.320505904871027 95.74682812603515 15.096163317902779 H 0.0 **** 0.06
27113 H 22.358680378859106 95.83820860939224 13.31952704233072 H 0.0 **** 0.06
27114 H 23.720547428442956 96.47487901432865 14.27338094958111 H 0.0 **** 0.06
27115 H 22.154597556708097 97.32131309154192 14.283005438541181 H 0.0 **** 0.06
27116 C 111.85074101450294 35.58780637172504 35.4842254178925 C 0.0 **** -0.24
27117 H 111.9501826713103 34.56636628470466 35.85271832997074 H 0.0 **** 0.06
27118 H 111.10968640291406 36.11872480035811 36.08214445848682 H 0.0 **** 0.06
27119 H 111.5313297176888 35.56768789349218 34.442264698671295 H 0.0 **** 0.06
27120 H 112.81148486864947 36.09706323116421 35.55986381373327 H 0.0 **** 0.06
27121 C 125.53005903660325 56.27799265161842 129.01663397909869 C 0.0 **** -0.24
27122 H 126.14764780605108 56.89453420894394 129.67014918062873 H 0.0 **** 0.06
27123 H 124.62102305839691 55.986395080558594 129.54469556192154 H 0.0 **** 0.06
27124 H 126.08484383437636 55.386063944354845 128.72769210486894 H 0.0 **** 0.06
27125 H 125.26544482473362 56.846495840305664 128.12425345796572 H 0.0 **** 0.06
27126 C 82.49272762583857 15.925506676742202 113.2157850287983 C 0.0 **** -0.24
27127 H 83.01995795563016 16.671331947016853 112.62090494373045 H 0.0 **** 0.06
27128 H 83.11719188773694 15.037790540687212 113.31899814617414 H 0.0 **** 0.06
27129 H 81.55958254720102 15.657273552268578 112.71889791194742 H 0.0 **** 0.06
27130 H 82.27465102978854 16.333500181382306 114.20228050116303 H 0.0 **** 0.06
27131 C 27.88721147930329 19.75610805168583 68.27354014479354 C 0.0 **** -0.24
27132 H 28.58828780901092 19.771077339445583 67.43849797714492 H 0.0 **** 0.06
27133 H 27.607822830709722 18.725818957937335 68.49402560832218 H 0.0 **** 0.06
27134 H 26.996988551794175 20.3265593833938 68.0105404680626 H 0.0 **** 0.06
27135 H 28.358510274416403 20.2008079828844 69.15051787263585 H 0.0 **** 0.06
27136 C 93.26674539639463 119.24580031625473 85.81966204051321 C 0.0 **** -0.24
27137 H 93.1360262494334 118.19529662591114 86.07809372076264 H 0.0 **** 0.06
27138 H 92.62606187360598 119.4938268292006 84.97292773173967 H 0.0 **** 0.06
27139 H 94.3076675746497 119.4280322219256 85.55367522505372 H 0.0 **** 0.06
27140 H 92.99658500857264 119.86596373784266 86.67471478666857 H 0.0 **** 0.06
27141 C 32.193473169941626 120.7068509209241 124.82205382860818 C 0.0 **** -0.24
27142 H 32.184901063677586 120.04509519285298 123.95642209350996 H 0.0 **** 0.06
27143 H 31.564899142658277 121.57471770308646 124.62158579693659 H 0.0 **** 0.06
27144 H 33.214954661679116 121.03509599371401 125.01818207656487 H 0.0 **** 0.06
27145 H 31.81042539537981 120.1720937045919 125.69159947472792 H 0.0 **** 0.06
27146 C 12.936534665540265 126.61654419097613 28.495354533529934 C 0.0 **** -0.24
27147 H 14.008081995525853 126.56897071882307 28.692074166591908 H 0.0 **** 0.06
27148 H 12.590033512371043 127.642333191566 28.620535761044835 H 0.0 **** 0.06
27149 H 12.410455956684817 125.96671658592356 29.194540298451983 H 0.0 **** 0.06
27150 H 12.740540796004723 126.28792680052825 27.4745928092685 H 0.0 **** 0.06
27151 C 34.46685485035885 79.48840791860106 128.3056577028628 C 0.0 **** -0.24
27152 H 35.47018546482957 79.78188044130512 128.61622507134132 H 0.0 **** 0.06
27153 H 33.816444618853104 80.36343190787235 128.3058858699575 H 0.0 **** 0.06
27154 H 34.07615851445533 78.74315489079976 128.9986820746994 H 0.0 **** 0.06
27155 H 34.50741791701852 79.06471951686066 127.30165207238 H 0.0 **** 0.06
27156 C 108.94478381962156 116.50514002921327 127.20998142598438 C 0.0 **** -0.24
27157 H 109.45299606982243 117.44330231905684 126.98623308950852 H 0.0 **** 0.06
27158 H 107.89382362345063 116.58516971658193 126.93084270393962 H 0.0 **** 0.06
27159 H 109.02137671406291 116.29626900699213 128.27721472540702 H 0.0 **** 0.06
27160 H 109.41020226585712 115.6961775210911 126.6467880252199 H 0.0 **** 0.06
27161 C 122.73004868565667 116.2349595450803 105.84592515513833 C 0.0 **** -0.24
27162 H 123.11594030883565 115.684443821862 106.70460823475668 H 0.0 **** 0.06
27163 H 123.2300925099808 115.89112519672665 104.94021956811213 H 0.0 **** 0.06
27164 H 122.91754788033893 117.29977178282135 105.98357474745757 H 0.0 **** 0.06
27165 H 121.65725939361101 116.06313438361988 105.7569491446589 H 0.0 **** 0.06
27166 C 60.18512923665378 37.80637667553464 60.75675455745545 C 0.0 **** -0.24
27167 H 59.37795819316172 38.53846475836739 60.767772135717166 H 0.0 **** 0.06
27168 H 60.314126740241264 37.42334013517873 59.744953160760275 H 0.0 **** 0.06
27169 H 59.938827595659106 36.984125646335194 61.428997257757885 H 0.0 **** 0.06
27170 H 61.10952124363257 38.281090412208094 61.08659965142277 H 0.0 **** 0.06
27171 C 1.8279316294723742 87.59352888572792 111.26137288380329 C 0.0 **** -0.24
27172 H 0.8387306093439975 87.98513978464078 111.0253608374619 H 0.0 **** 0.06
27173 H 2.5829332167629957 88.33763883769777 111.00827718169353 H 0.0 **** 0.06
27174 H 2.0054827175467267 86.68499255500384 110.6846763457184 H 0.0 **** 0.06
27175 H 1.8837548747407311 87.36491258070414 112.3256706901144 H 0.0 **** 0.06
27176 C 96.77921631727045 63.019619033014806 130.22385156534668 C 0.0 **** -0.24
27177 H 96.004121279055 63.02642456191933 130.98961379101084 H 0.0 **** 0.06
27178 H 96.69161747153309 62.11040043151053 129.62705295455768 H 0.0 **** 0.06
27179 H 97.7603988035477 63.04965680031688 130.69889598133815 H 0.0 **** 0.06
27180 H 96.66039843229595 63.89049126591948 129.57904822688906 H 0.0 **** 0.06
27181 C 106.97617986393612 28.460361101047795 8.44322643569626 C 0.0 **** -0.24
27182 H 107.42112339955287 27.478214280148222 8.599742521146595 H 0.0 **** 0.06
27183 H 106.75044763757268 28.592130388497978 7.384611616317443 H 0.0 **** 0.06
27184 H 107.67591609803162 29.23233012672182 8.764986519234299 H 0.0 **** 0.06
27185 H 106.05674808275683 28.539360797274327 9.022920054391534 H 0.0 **** 0.06
27186 C 75.518405923876 1.345388790255413 15.972680364751966 C 0.0 **** -0.24
27187 H 76.11514928131487 2.1338489733907977 16.43045359606782 H 0.0 **** 0.06
27188 H 74.59909907515569 1.7723635022005055 15.572356795733697 H 0.0 **** 0.06
27189 H 75.27310504813572 0.5937024089578813 16.72346767021753 H 0.0 **** 0.06
27190 H 76.0857551489687 0.8814914600226871 15.16661428671523 H 0.0 **** 0.06
27191 C 86.46186973971066 106.71263815209174 37.51337137281641 C 0.0 **** -0.24
27192 H 86.00586397208531 107.28295873513257 38.322201146932926 H 0.0 **** 0.06
27193 H 85.81583647437753 105.87408311068354 37.251152001217925 H 0.0 **** 0.06
27194 H 87.43242819534925 106.33603337808049 37.83521226290073 H 0.0 **** 0.06
27195 H 86.5924733736197 107.35633941817612 36.64320652171961 H 0.0 **** 0.06
27196 C 0.35030013668239235 31.108938554232736 72.99259619247889 C 0.0 **** -0.24
27197 H 0.004936116374040012 31.297282497068068 74.00988612543928 H 0.0 **** 0.06
27198 H -0.37566797262553564 30.484371493772414 72.47275129354817 H 0.0 **** 0.06
27199 H 1.3130093332416664 30.59831618980712 73.02550975856535 H 0.0 **** 0.06
27200 H 0.45959601300620534 32.05660112444167 72.4650447293106 H 0.0 **** 0.06
27201 C 75.97717241715358 43.45252389179933 112.47976344931254 C 0.0 **** -0.24
27202 H 75.61786972558279 44.43634436401868 112.7811706649797 H 0.0 **** 0.06
27203 H 76.12047065681284 43.43490362546261 111.39921052176527 H 0.0 **** 0.06
27204 H 75.24488862013202 42.69653955434612 112.76135984990384 H 0.0 **** 0.06
27205 H 76.92473180277855 43.24521530229403 112.9763042731069 H 0.0 **** 0.06
27206 C 62.26110980925145 46.455260072914115 47.42278532204233 C 0.0 **** -0.24
27207 H 62.910108211580734 45.63378739269364 47.117701342676526 H 0.0 **** 0.06
27208 H 61.38044069344548 46.48025717771734 46.77942101173835 H 0.0 **** 0.06
27209 H 62.80190614058992 47.39719459893468 47.33530329816426 H 0.0 **** 0.06
27210 H 61.951560082688076 46.308300007333486 48.45682695315827 H 0.0 **** 0.06
27211 C 20.98505660988124 76.17133748318415 49.55389316349513 C 0.0 **** -0.24
27212 H 21.997702366444145 76.0039079619003 49.187455750511035 H 0.0 **** 0.06
27213 H 20.73583556321475 75.40843433563387 50.29184449027008 H 0.0 **** 0.06
27214 H 20.28365921490456 76.11597429140116 48.722030782858965 H 0.0 **** 0.06
27215 H 20.924655335984028 77.15674223763119 50.01574878910358 H 0.0 **** 0.06
27216 C 24.028908360583074 127.48669312352509 102.08397334830718 C 0.0 **** -0.24
27217 H 23.579276904684768 126.7678610008147 101.39894239583657 H 0.0 **** 0.06
27218 H 23.31980366999683 127.72361610856126 102.87846162542141 H 0.0 **** 0.06
27219 H 24.28131050178971 128.39698421229315 101.53982375388873 H 0.0 **** 0.06
27220 H 24.932333515993754 127.0593582569337 102.51800021144912 H 0.0 **** 0.06
27221 C 4.03357997208667 36.54503353005137 20.483595350665517 C 0.0 **** -0.24
27222 H 5.0828853061319705 36.37336565289564 20.24149829860618 H 0.0 **** 0.06
27223 H 3.6854809214569855 37.441641509497884 19.971045222273574 H 0.0 **** 0.06
27224 H 3.9263848094773266 36.67622879851362 21.560831409462438 H 0.0 **** 0.06
27225 H 3.4425140924243465 35.688351686742294 20.161172079961716 H 0.0 **** 0.06
27226 C 13.115433142511673 90.18469145770061 127.34999824152271 C 0.0 **** -0.24
27227 H 12.101976652069759 90.37044961125503 126.99376749848142 H 0.0 **** 0.06
27228 H 13.0882145086033 89.45004428579459 128.15462370432726 H 0.0 **** 0.06
27229 H 13.545761710048847 91.11480502466797 127.7207832572125 H 0.0 **** 0.06
27230 H 13.724147962223384 89.8039983269222 126.53058356573432 H 0.0 **** 0.06
27231 C 15.792236546067628 115.40617291695341 78.24644924072813 C 0.0 **** -0.24
27232 H 16.261680408410754 114.47340061251796 78.55878039780912 H 0.0 **** 0.06
27233 H 16.528331337634995 116.02902152338945 77.73621728034433 H 0.0 **** 0.06
27234 H 15.413043006618622 115.93316804147472 79.12073394491938 H 0.0 **** 0.06
27235 H 14.96753692380166 115.18705052086162 77.56740326122572 H 0.0 **** 0.06
27236 C 55.88778987809627 113.48734324194534 126.37849659079725 C 0.0 **** -0.24
27237 H 56.31364043874498 112.88499351897913 127.18008595169911 H 0.0 **** 0.06
27238 H 56.6276998799396 113.61892228555568 125.58942588705719 H 0.0 **** 0.06
27239 H 55.59800812901136 114.46235349219738 126.77143560738517 H 0.0 **** 0.06
27240 H 55.009338615556544 112.98477860234503 125.97332545497315 H 0.0 **** 0.06
27241 C 29.79998517841804 76.95479607579973 55.06355564436399 C 0.0 **** -0.24
27242 H 29.280134647684193 76.549542400106 54.196271796491246 H 0.0 **** 0.06
27243 H 30.64841697935931 77.55449472145038 54.732637931953704 H 0.0 **** 0.06
27244 H 30.156222526188884 76.13616736545346 55.689269223220364 H 0.0 **** 0.06
27245 H 29.11566273081158 77.57947913641061 55.638389863198455 H 0.0 **** 0.06
27246 C 66.43854797585554 48.866162554895766 2.966286501414107 C 0.0 **** -0.24
27247 H 66.91133671049104 49.19727006320079 2.042414204171642 H 0.0 **** 0.06
27248 H 65.61797378423367 49.53854884053602 3.2158784251224475 H 0.0 **** 0.06
27249 H 67.173029666705 48.87302880644451 3.77245338457719 H 0.0 **** 0.06
27250 H 66.05414413257276 47.85453793607282 2.835470621187117 H 0.0 **** 0.06
27251 C 21.310007871999744 125.2656323274563 108.14010493023991 C 0.0 **** -0.24
27252 H 20.647980823021385 125.75873218625688 108.85227711032005 H 0.0 **** 0.06
27253 H 22.333733548707528 125.60582215426521 108.29920597866817 H 0.0 **** 0.06
27254 H 20.998694180955738 125.51216543055457 107.12499277534602 H 0.0 **** 0.06
27255 H 21.258371687890985 124.18692340952245 108.28350358440008 H 0.0 **** 0.06
27256 C 111.87080651851562 47.479472053702494 65.90432558788635 C 0.0 **** -0.24
27257 H 111.10750891852354 48.158044210117964 66.28500533035785 H 0.0 **** 0.06
27258 H 112.23428423044976 46.84936216857895 66.71655831226528 H 0.0 **** 0.06
27259 H 112.69914232334645 48.058694281210876 65.49569751255615 H 0.0 **** 0.06
27260 H 111.44381053678256 46.85416458837585 65.12106100658477 H 0.0 **** 0.06
27261 C 33.55285616492765 26.790737382301963 127.64701469882654 C 0.0 **** -0.24
27262 H 34.40923988378722 27.465781796896223 127.6640295401325 H 0.0 **** 0.06
27263 H 33.6362964110219 26.121011434486526 126.79022042181808 H 0.0 **** 0.06
27264 H 32.63438448133863 27.372013257629085 127.56679261988859 H 0.0 **** 0.06
27265 H 33.53329446549546 26.2049351868799 128.56554425705818 H 0.0 **** 0.06
27266 C 130.1028671777684 50.98924410154444 49.15516087652776 C 0.0 **** -0.24
27267 H 129.50229811388445 51.832022195601695 48.814693132475796 H 0.0 **** 0.06
27268 H 130.34204560023184 51.11611737840357 50.21131681234422 H 0.0 **** 0.06
27269 H 131.02528974088366 50.94168209807256 48.57621187013582 H 0.0 **** 0.06
27270 H 129.54066067281084 50.065007014065486 49.018511069595434 H 0.0 **** 0.06
27271 C 17.40014907216363 61.33178983890805 129.3414816234242 C 0.0 **** -0.24
27272 H 16.604916170925293 60.59558412863299 129.22219087020764 H 0.0 **** 0.06
27273 H 17.153769654951475 62.00305661400357 130.16482093980287 H 0.0 **** 0.06
27274 H 17.50424662345918 61.90664850204672 128.421696516904 H 0.0 **** 0.06
27275 H 18.338308623922586 60.82016168686947 129.5585088331703 H 0.0 **** 0.06
27276 C 74.2213092076426 64.21299724468838 52.14342234740087 C 0.0 **** -0.24
27277 H 73.1718386440154 63.91758898931546 52.13776539925547 H 0.0 **** 0.06
27278 H 74.31010772172971 65.23064440776947 52.52231083494428 H 0.0 **** 0.06
27279 H 74.61724689263463 64.16644231890443 51.12837332256703 H 0.0 **** 0.06
27280 H 74.78491417743669 63.535799770455625 52.78458102154477 H 0.0 **** 0.06
27281 C 120.96697278247231 99.14327464023884 78.98975317902 C 0.0 **** -0.24
27282 H 122.0491075992964 99.25978413609946 79.05317457743132 H 0.0 **** 0.06
27283 H 120.65221973380463 99.23897622866738 77.95024549109559 H 0.0 **** 0.06
27284 H 120.4824739286179 99.91362785640929 79.58905294552665 H 0.0 **** 0.06
27285 H 120.68531835196295 98.15933989954736 79.36575679402449 H 0.0 **** 0.06
27286 C 75.09788428043726 128.64265577445067 87.74864274377025 C 0.0 **** -0.24
27287 H 74.35646985210138 128.20995796687595 87.0780872751143 H 0.0 **** 0.06
27288 H 75.85302494044953 129.16831063391072 87.16359824756798 H 0.0 **** 0.06
27289 H 75.57208774383514 127.85020605097223 88.3265414447005 H 0.0 **** 0.06
27290 H 74.6093469962839 129.34339678227087 88.42607455626786 H 0.0 **** 0.06
27291 C 15.80189398984848 73.50799865089834 82.52586826025086 C 0.0 **** -0.24
27292 H 15.129232414087511 72.7227223585722 82.18239779133374 H 0.0 **** 0.06
27293 H 15.357915623512469 74.01937012951639 83.38049914056688 H 0.0 **** 0.06
27294 H 15.96654606339979 74.22268675031943 81.71906337354599 H 0.0 **** 0.06
27295 H 16.754828113085892 73.0668345703978 82.8205330880252 H 0.0 **** 0.06
27296 C 113.75818063143386 110.1923072521979 20.08430028893747 C 0.0 **** -0.24
27297 H 114.35587588834453 109.35346294459242 20.44226834560604 H 0.0 **** 0.06
27298 H 114.3955473875563 110.88158016611806 19.530442060311103 H 0.0 **** 0.06
27299 H 113.31436434282396 110.71082416891682 20.934584840507625 H 0.0 **** 0.06
27300 H 112.9684632809715 109.82114687956482 19.431232189019937 H 0.0 **** 0.06
27301 C 51.680073142636445 6.822815952151217 11.667796488364274 C 0.0 **** -0.24
27302 H 52.123705318760585 7.560787749097699 10.999500457478916 H 0.0 **** 0.06
27303 H 51.1770104905691 7.334061561839519 12.490046146686893 H 0.0 **** 0.06
27304 H 52.46212865012137 6.176033857705278 12.065844966216844 H 0.0 **** 0.06
27305 H 50.95609972789657 6.222336171210884 11.116392794288572 H 0.0 **** 0.06
27306 C 59.97565593312504 128.3538188264453 119.08023249633038 C 0.0 **** -0.24
27307 H 60.61913529878184 128.74303519373754 118.29188971835717 H 0.0 **** 0.06
27308 H 58.94717128784103 128.66406983786715 118.89624308901438 H 0.0 **** 0.06
27309 H 60.305429630189394 128.74175815660195 120.04359525794248 H 0.0 **** 0.06
27310 H 60.03067474995878 127.264248639719 119.08867811273441 H 0.0 **** 0.06
27311 C 72.79659058650648 63.06238126813234 17.791729649453515 C 0.0 **** -0.24
27312 H 73.10097043041525 63.80589453491092 17.055167095599842 H 0.0 **** 0.06
27313 H 73.47134864785151 62.20769490364343 17.744631441091656 H 0.0 **** 0.06
27314 H 71.77955709787028 62.735439985290284 17.577728034919488 H 0.0 **** 0.06
27315 H 72.83579136038068 63.50170946308408 18.788484636441524 H 0.0 **** 0.06
27316 C 19.18647358960601 119.08610912465657 46.80617207166176 C 0.0 **** -0.24
27317 H 19.345963492875114 120.10824105098436 46.464181264459114 H 0.0 **** 0.06
27318 H 18.58193021901502 118.54936255709306 46.075675080437804 H 0.0 **** 0.06
27319 H 18.670908073111264 119.10034062769844 47.76559587935367 H 0.0 **** 0.06
27320 H 20.14975035762592 118.58663799441887 46.91827930065489 H 0.0 **** 0.06
27321 C 88.79004383673626 52.98843932854706 98.84508480725296 C 0.0 **** -0.24
27322 H 89.162781539967 53.14225390717162 97.83265450251669 H 0.0 **** 0.06
27323 H 87.92760358147365 53.632325138806465 99.01663457664348 H 0.0 **** 0.06
27324 H 89.57501420353302 53.231651182288275 99.56176397888389 H 0.0 **** 0.06
27325 H 88.49594186691178 51.9461492160475 98.96796611038954 H 0.0 **** 0.06
27326 C 54.69437841880027 35.24800850472087 54.49642451909716 C 0.0 **** -0.24
27327 H 55.648346773933625 35.728279013836016 54.27830506626303 H 0.0 **** 0.06
27328 H 54.778623808761964 34.17509088658272 54.31947523205619 H 0.0 **** 0.06
27329 H 53.922037545112005 35.66379189875414 53.84785276388861 H 0.0 **** 0.06
27330 H 54.42856265325635 35.42536479173742 55.538405411949356 H 0.0 **** 0.06
27331 C 21.289013468049802 85.70159798862443 74.33593383392619 C 0.0 **** -0.24
27332 H 21.397407058837018 85.583587721674 75.41466454406981 H 0.0 **** 0.06
27333 H 20.365401252745755 85.22293528782416 74.00908522235054 H 0.0 **** 0.06
27334 H 22.13709085397653 85.23757570463185 73.83253783762859 H 0.0 **** 0.06
27335 H 21.25605557717148 86.76318435815583 74.08972729699383 H 0.0 **** 0.06
27336 C 56.77154061140335 41.03693099809564 103.7485695878257 C 0.0 **** -0.24
27337 H 56.966863947102155 41.73405048337415 102.9337139636745 H 0.0 **** 0.06
27338 H 55.70891635894324 41.05021892414217 103.990024704357 H 0.0 **** 0.06
27339 H 57.347574231174335 41.333004275125774 104.62541128713617 H 0.0 **** 0.06
27340 H 57.0643580349406 40.031577807712466 103.4445573621537 H 0.0 **** 0.06
27341 C 34.542661120801995 3.00136697065955 69.58275024218706 C 0.0 **** -0.24
27342 H 35.0242017192154 3.7729098636317886 70.1837940870396 H 0.0 **** 0.06
27343 H 34.43877730950544 3.3530486332539233 68.55599093962878 H 0.0 **** 0.06
27344 H 33.55745092892448 2.7823142179391027 69.99385024506428 H 0.0 **** 0.06
27345 H 35.15096639787333 2.0972144230791763 69.59802476697581 H 0.0 **** 0.06
27346 C 48.08491983293232 3.487786510153512 41.90890309575798 C 0.0 **** -0.24
27347 H 48.509590591547294 3.2038227449187104 42.87272097194506 H 0.0 **** 0.06
27348 H 47.70890841451613 2.5988155548683665 41.40145695827542 H 0.0 **** 0.06
27349 H 48.85583339936002 3.956390430413137 41.297073776470484 H 0.0 **** 0.06
27350 H 47.267873214684144 4.191012407320244 42.06620395375512 H 0.0 **** 0.06
27351 C 44.46631537135639 124.77253922835348 70.95605842435575 C 0.0 **** -0.24
27352 H 44.38631364544497 125.70981602287759 70.40632453636317 H 0.0 **** 0.06
27353 H 43.98564827361474 123.97582112148251 70.38782704391892 H 0.0 **** 0.06
27354 H 43.9754721003992 124.8767504923942 71.9243091316919 H 0.0 **** 0.06
27355 H 45.51794201722697 124.52862208394174 71.1062825477103 H 0.0 **** 0.06
27356 C 37.215297422096114 43.089844285374 81.92494035584286 C 0.0 **** -0.24
27357 H 37.147487015514855 43.60227717006258 82.8848855571118 H 0.0 **** 0.06
27358 H 37.93709981232672 42.275923464795056 81.99840952974913 H 0.0 **** 0.06
27359 H 37.5376293520236 43.79427511713958 81.15872449214373 H 0.0 **** 0.06
27360 H 36.23741016409946 42.686600353427366 81.65931207086498 H 0.0 **** 0.06
27361 C 85.57088124101301 91.08858132976326 96.50112770534632 C 0.0 **** -0.24
27362 H 85.6043201399371 90.1188659282157 96.00379844936352 H 0.0 **** 0.06
27363 H 85.94205727045862 91.85674346733182 95.82320092643216 H 0.0 **** 0.06
27364 H 86.19435964478718 91.05912408577397 97.39480462056339 H 0.0 **** 0.06
27365 H 84.54318438902708 91.31669811260957 96.78202150616178 H 0.0 **** 0.06
27366 C 60.21165437032704 101.26661356664464 82.21390762336677 C 0.0 **** -0.24
27367 H 59.726102053588875 102.05021713463434 81.63250255784956 H 0.0 **** 0.06
27368 H 59.80884461394652 100.29578268087208 81.92494193268786 H 0.0 **** 0.06
27369 H 60.027228130619505 101.43557715794257 83.27548278083745 H 0.0 **** 0.06
27370 H 61.28478699444577 101.28598536168728 82.02351176751637 H 0.0 **** 0.06
27371 C 106.11222754667165 92.45364739324197 1.6330533803206002 C 0.0 **** -0.24
27372 H 106.95981606512697 93.13675782698022 1.5739489574652232 H 0.0 **** 0.06
27373 H 105.52532423849073 92.67987386516779 2.524294460475332 H 0.0 **** 0.06
27374 H 106.47632689479823 91.42729368507126 1.6894560288350888 H 0.0 **** 0.06
27375 H 105.4884695206901 92.57006642967268 0.7470810483091199 H 0.0 **** 0.06
27376 C 100.7997226554591 54.66785505598929 43.41351702415537 C 0.0 **** -0.24
27377 H 101.48671953696797 53.954650117826105 43.870289982863994 H 0.0 **** 0.06
27378 H 100.07777367952546 54.132079165647696 42.79712887808981 H 0.0 **** 0.06
27379 H 101.3610013519467 55.36580854611208 42.79368840051728 H 0.0 **** 0.06
27380 H 100.27484005754444 55.216982159692606 44.19547173769246 H 0.0 **** 0.06
27381 C 102.64233102701287 104.39155150757452 91.69326762226572 C 0.0 **** -0.24
27382 H 102.32029036369696 104.91946966021978 90.79559969298919 H 0.0 **** 0.06
27383 H 101.77005783007596 104.11540578233979 92.28561504720861 H 0.0 **** 0.06
27384 H 103.29152923551206 105.0401880785218 92.28189720566527 H 0.0 **** 0.06
27385 H 103.18950572313673 103.49286889054542 91.40862420915917 H 0.0 **** 0.06
27386 C 61.80386132118812 65.04827640025597 82.8654047541645 C 0.0 **** -0.24
27387 H 62.42779822336723 64.15537638841091 82.91026907562701 H 0.0 **** 0.06
27388 H 60.80289836754929 64.77652628708145 82.53166165187974 H 0.0 **** 0.06
27389 H 62.24078862944705 65.76047138878269 82.16544454563058 H 0.0 **** 0.06
27390 H 61.747116651138384 65.50027325775714 83.85592501321855 H 0.0 **** 0.06
27391 C 87.33386875494239 4.488473933196207 78.76756222830356 C 0.0 **** -0.24
27392 H 88.18182163419681 4.037884141497994 78.25262419876908 H 0.0 **** 0.06
27393 H 86.5968804474245 3.718046567226967 78.9970626629456 H 0.0 **** 0.06
27394 H 86.88081782948268 5.24599785660801 78.1269914607548 H 0.0 **** 0.06
27395 H 87.67595510866533 4.951967167452057 79.69357059074474 H 0.0 **** 0.06
27396 C 121.79281519729378 42.80647461928214 7.4071049615508 C 0.0 **** -0.24
27397 H 121.4900974727816 42.20614984631095 8.265583072388551 H 0.0 **** 0.06
27398 H 122.35429205739567 42.18515471937877 6.7085852052232156 H 0.0 **** 0.06
27399 H 122.42013407038922 43.631508132242146 7.744736727397225 H 0.0 **** 0.06
27400 H 120.90718772866308 43.2031013194929 6.910855320233992 H 0.0 **** 0.06
27401 C 29.562092887677352 69.44916451509995 10.281425567794287 C 0.0 **** -0.24
27402 H 29.105745375786796 70.37233114710725 10.639825950711185 H 0.0 **** 0.06
27403 H 28.817176784286858 68.86085193685717 9.745097487227412 H 0.0 **** 0.06
27404 H 29.936110946060296 68.8765389617427 11.130478551791413 H 0.0 **** 0.06
27405 H 30.388239954594326 69.68919485032637 9.6122216197395 H 0.0 **** 0.06
27406 C 123.02436457039653 8.071607012789087 56.62849565729422 C 0.0 **** -0.24
27407 H 123.72880202753944 7.43509072039835 57.163370701694035 H 0.0 **** 0.06
27408 H 123.46422518794307 9.058967140929028 56.484051388632395 H 0.0 **** 0.06
27409 H 122.10593469641557 8.165237724150188 57.20891480381677 H 0.0 **** 0.06
27410 H 122.79768016903321 7.629181414071567 55.65871155052929 H 0.0 **** 0.06
27411 C 91.91180611041524 97.11659067319609 74.76205297130484 C 0.0 **** -0.24
27412 H 91.25059421159658 97.56758984347917 74.02121687761047 H 0.0 **** 0.06
27413 H 91.87660331937485 96.03106845230222 74.66569019427611 H 0.0 **** 0.06
27414 H 91.58542912795926 97.40472488313203 75.76130329469447 H 0.0 **** 0.06
27415 H 92.93095323810469 97.46466376516648 74.5977920465343 H 0.0 **** 0.06
27416 C 123.65697154425712 106.66815588507407 60.65152636959189 C 0.0 **** -0.24
27417 H 124.61536535270858 106.22932915692797 60.93238217704939 H 0.0 **** 0.06
27418 H 123.40239640488471 107.46208468369514 61.354304487203166 H 0.0 **** 0.06
27419 H 122.8845983354251 105.8990845274166 60.67653384359875 H 0.0 **** 0.06
27420 H 123.72730943207537 107.08038727225245 59.64567784655037 H 0.0 **** 0.06
27421 C 64.13477579477127 45.527746092386195 78.23915618194857 C 0.0 **** -0.24
27422 H 64.22376622124236 45.31611713074889 79.30463698797891 H 0.0 **** 0.06
27423 H 63.76125325822363 46.54191551267337 78.09905354786517 H 0.0 **** 0.06
27424 H 63.44230846484889 44.81920868912877 77.78464191839072 H 0.0 **** 0.06
27425 H 65.11329005633148 45.432229096064106 77.76764917306616 H 0.0 **** 0.06
27426 C 89.34860111162695 125.92036775662689 9.213855576179014 C 0.0 **** -0.24
27427 H 88.41959085846813 125.66253196988967 9.7222541609477 H 0.0 **** 0.06
27428 H 89.94730797185747 125.0206430296646 9.07245553289684 H 0.0 **** 0.06
27429 H 89.90547784278101 126.63821938611932 9.81617012834235 H 0.0 **** 0.06
27430 H 89.11982281206608 126.36135361973669 8.242958824126674 H 0.0 **** 0.06
27431 C 91.93768492788486 76.51182923825255 27.31503834010016 C 0.0 **** -0.24
27432 H 92.67836654748162 75.77500958879983 27.623785714902 H 0.0 **** 0.06
27433 H 92.41972106826789 77.28214257847907 26.71412161010454 H 0.0 **** 0.06
27434 H 91.488904313329 76.96720990226925 28.198511003774968 H 0.0 **** 0.06
27435 H 91.1629463870674 76.02227141788728 26.725707573121042 H 0.0 **** 0.06
27436 C 39.792660767782735 102.99449218144267 81.72189677140375 C 0.0 **** -0.24
27437 H 40.69181538846527 103.17057324594705 82.31257766023069 H 0.0 **** 0.06
27438 H 39.25152165289656 102.1415183464548 82.12950623827268 H 0.0 **** 0.06
27439 H 40.07193235708972 102.78876552001326 80.68890095808476 H 0.0 **** 0.06
27440 H 39.15706055504521 103.87936263863725 81.75689847328272 H 0.0 **** 0.06
27441 C 125.74286391920334 59.339204934765974 59.11029222039954 C 0.0 **** -0.24
27442 H 126.6263278338608 59.769127372269224 58.63778750417444 H 0.0 **** 0.06
27443 H 125.50073586917595 58.39007648556867 58.63117979594095 H 0.0 **** 0.06
27444 H 124.90269232188554 60.025679869096734 59.00186544581388 H 0.0 **** 0.06
27445 H 125.94189480790264 59.172306774232254 60.168985372369065 H 0.0 **** 0.06
27446 C 58.533311751393484 100.56402415391909 48.5567383725445 C 0.0 **** -0.24
27447 H 58.502820984966604 99.9530072270494 47.654591433283315 H 0.0 **** 0.06
27448 H 57.82247793675775 101.3855576215636 48.463284823832346 H 0.0 **** 0.06
27449 H 59.538107088759475 100.96432479893522 48.690571008337145 H 0.0 **** 0.06
27450 H 58.26840751130949 99.95122080264653 49.418530854471925 H 0.0 **** 0.06
27451 C 71.2905155744541 81.24796299208813 41.00641427349933 C 0.0 **** -0.24
27452 H 72.18494812139733 81.22240733407745 40.38419262384596 H 0.0 **** 0.06
27453 H 71.40524269879973 80.55015850909251 41.83591717511811 H 0.0 **** 0.06
27454 H 70.4239456766503 80.96519241984328 40.40879158089669 H 0.0 **** 0.06
27455 H 71.14956505364563 82.2565704857428 41.39633273300443 H 0.0 **** 0.06
27456 C 130.17080498951887 4.538705066779698 106.89679654013392 C 0.0 **** -0.24
27457 H 130.9005186776535 4.285524762409921 106.12808781602725 H 0.0 **** 0.06
27458 H 130.39587192075953 5.526982854949551 107.30019394967243 H 0.0 **** 0.06
27459 H 130.2147760044869 3.800936688680622 107.69753919657039 H 0.0 **** 0.06
27460 H 129.17095581380292 4.543491274925373 106.4619319309719 H 0.0 **** 0.06
27461 C 57.66539243659493 3.4490689964809462 28.21165546784573 C 0.0 **** -0.24
27462 H 56.89306142606735 3.8468635204842627 28.86928054824577 H 0.0 **** 0.06
27463 H 57.76509420308281 2.3762475804745975 28.376361969978845 H 0.0 **** 0.06
27464 H 58.614864201342 3.9395884573351054 28.428232352532632 H 0.0 **** 0.06
27465 H 57.38950896387996 3.634756706015949 27.173576058963846 H 0.0 **** 0.06
27466 C 26.735531465097665 39.53875338133294 117.04341397817673 C 0.0 **** -0.24
27467 H 26.023843213890473 40.361347114731885 116.9785155061331 H 0.0 **** 0.06
27468 H 26.19660913482241 38.590518206293126 117.03858399170308 H 0.0 **** 0.06
27469 H 27.308803193364696 39.62610207154536 117.96683925987806 H 0.0 **** 0.06
27470 H 27.413399890739527 39.57620462788181 116.18982429290423 H 0.0 **** 0.06
27471 C 124.80495717287383 79.30853838577215 107.26318860949556 C 0.0 **** -0.24
27472 H 124.6416623336174 78.82288137264462 108.2247792081196 H 0.0 **** 0.06
27473 H 125.32188194897091 78.62156931755081 106.5922655062688 H 0.0 **** 0.06
27474 H 125.41153442740031 80.20340721194046 107.40629119350528 H 0.0 **** 0.06
27475 H 123.84501992869218 79.58730256972572 106.82846284454335 H 0.0 **** 0.06
27476 C 39.657173959337385 8.534102866969931 83.67047536313154 C 0.0 **** -0.24
27477 H 40.71762631034818 8.383124978388821 83.47029064772735 H 0.0 **** 0.06
27478 H 39.428647242806704 9.599382441928356 83.63325366232318 H 0.0 **** 0.06
27479 H 39.414929381601695 8.144066064179697 84.6582143132774 H 0.0 **** 0.06
27480 H 39.067397105835 8.009494087311339 82.9173369414483 H 0.0 **** 0.06
27481 C 36.540363209439114 112.0361555672261 115.23451989734167 C 0.0 **** -0.24
27482 H 36.45529081179885 111.93344134726924 116.31690292339795 H 0.0 **** 0.06
27483 H 37.48953275439957 112.51492199986733 114.98881584309703 H 0.0 **** 0.06
27484 H 35.718209715521354 112.64651159285098 114.86215774921817 H 0.0 **** 0.06
27485 H 36.500297673385234 111.04992556010697 114.7717655219127 H 0.0 **** 0.06
27486 C 122.99105209999439 95.88716531306791 116.31717204411825 C 0.0 **** -0.24
27487 H 122.51879476197311 96.78534339525869 116.71452904144913 H 0.0 **** 0.06
27488 H 122.82284445373583 95.05505485978837 117.00202454041512 H 0.0 **** 0.06
27489 H 124.06269777211554 96.05728685224636 116.20917326242157 H 0.0 **** 0.06
27490 H 122.56096524323945 95.65013484876955 115.34472088724213 H 0.0 **** 0.06
27491 C 83.59410937814513 77.43443724897286 60.762171319987885 C 0.0 **** -0.24
27492 H 83.07595868602769 78.09912186315208 61.453114639240226 H 0.0 **** 0.06
27493 H 82.87774814502255 76.73980748569016 60.32104473166504 H 0.0 **** 0.06
27494 H 84.35875837287743 76.8742798436465 61.30085406152733 H 0.0 **** 0.06
27495 H 84.0626268135165 78.02275788976756 59.973550577649235 H 0.0 **** 0.06
27496 C 81.20753760869289 61.44725872420753 59.85502344897104 C 0.0 **** -0.24
27497 H 81.77267910572954 61.584032880789835 58.932221479446866 H 0.0 **** 0.06
27498 H 80.13980545182898 61.45070988233877 59.63085448552522 H 0.0 **** 0.06
27499 H 81.43715418611436 62.25893732456362 60.54448300507045 H 0.0 **** 0.06
27500 H 81.48102829555273 60.494868183490155 60.30929492912156 H 0.0 **** 0.06
27501 C 127.06359674341084 114.87552628255541 123.44730077361447 C 0.0 **** -0.24
27502 H 126.2160535630943 115.30441399717078 123.9828690807721 H 0.0 **** 0.06
27503 H 127.29501848429612 113.89349800945202 123.86238635206604 H 0.0 **** 0.06
27504 H 127.9287314268058 115.52955783451759 123.55399261996712 H 0.0 **** 0.06
27505 H 126.81249008546607 114.77390928569149 122.39197767373128 H 0.0 **** 0.06
27506 C 15.474026836048438 112.8675668291778 58.43154196387742 C 0.0 **** -0.24
27507 H 14.531501318782006 112.47963210222713 58.04620610590115 H 0.0 **** 0.06
27508 H 15.993932806687127 113.41099864588335 57.64262364940964 H 0.0 **** 0.06
27509 H 16.094744015510372 112.03914949093291 58.773143156914045 H 0.0 **** 0.06
27510 H 15.275571594869916 113.54005689947803 59.26657977004845 H 0.0 **** 0.06
27511 C 107.39199191784343 61.58602809611709 130.51864094504631 C 0.0 **** -0.24
27512 H 106.82497515591166 62.04905949870941 129.7114561178592 H 0.0 **** 0.06
27513 H 106.79882385527605 60.78832828517545 130.96737495423133 H 0.0 **** 0.06
27514 H 107.624476938719 62.33563944414031 131.27556898430535 H 0.0 **** 0.06
27515 H 108.31736951676504 61.171758849296495 130.1205559468853 H 0.0 **** 0.06
27516 C 34.506707740085574 34.36853539981729 72.3861647340612 C 0.0 **** -0.24
27517 H 34.39829179644556 35.056466426136495 71.54648535143048 H 0.0 **** 0.06
27518 H 35.28913101395733 34.73026405129468 73.05356992811707 H 0.0 **** 0.06
27519 H 34.77573195622955 33.38042545730431 72.01196128770025 H 0.0 **** 0.06
27520 H 33.56385930007605 34.30814068312384 72.92908804945552 H 0.0 **** 0.06
27521 C 6.238244475740942 35.06912279233856 24.189292384517472 C 0.0 **** -0.24
27522 H 5.318192796128841 34.65219812093244 23.779711875377068 H 0.0 **** 0.06
27523 H 6.33459708772061 34.77937742373405 25.23548177720958 H 0.0 **** 0.06
27524 H 6.2087094134001575 36.15696000018252 24.11412949350649 H 0.0 **** 0.06
27525 H 7.090171072488602 34.689194670730444 23.626521476484584 H 0.0 **** 0.06
27526 C 97.2463541043929 60.62943882753217 39.00308550484132 C 0.0 **** -0.24
27527 H 96.16757996014726 60.47099760188776 38.9998861024894 H 0.0 **** 0.06
27528 H 97.48410003043492 61.51949001534736 38.42084396910076 H 0.0 **** 0.06
27529 H 97.74210548178327 59.764291783259296 38.56342927305942 H 0.0 **** 0.06
27530 H 97.58925927201408 60.76347595533784 40.02853687276573 H 0.0 **** 0.06
27531 C 124.38262937664469 83.54042676715831 58.23183441776774 C 0.0 **** -0.24
27532 H 124.5208370849648 83.05110091381485 59.19533804510472 H 0.0 **** 0.06
27533 H 123.62814444824572 83.0038309029644 57.65680935212522 H 0.0 **** 0.06
27534 H 125.32529533674769 83.540291569963 57.68563823092073 H 0.0 **** 0.06
27535 H 124.05464127162584 84.56775910827929 58.39045514805704 H 0.0 **** 0.06
27536 C 0.8377452917834773 34.21095829463176 70.32103628240603 C 0.0 **** -0.24
27537 H 0.8216666621306388 34.52996451937915 69.2786788581266 H 0.0 **** 0.06
27538 H 0.6749407091946011 35.07397317201623 70.96683770183091 H 0.0 **** 0.06
27539 H 1.8049250620030364 33.76377518942929 70.54848513036879 H 0.0 **** 0.06
27540 H 0.04905493154791429 33.477171247043906 70.48796611043915 H 0.0 **** 0.06
27541 C 56.11164704128501 7.248014316905824 77.36362390871435 C 0.0 **** -0.24
27542 H 55.367495166590516 6.45283402832402 77.3099320706825 H 0.0 **** 0.06
27543 H 57.064534594014276 6.8799996092051 76.98450004512873 H 0.0 **** 0.06
27544 H 56.22981774205043 7.564335302691461 78.40026088428861 H 0.0 **** 0.06
27545 H 55.78201103384009 8.093344303604141 76.76020966972301 H 0.0 **** 0.06
27546 C 111.39448892395478 128.87290255038835 107.69646628551334 C 0.0 **** -0.24
27547 H 111.56881940594377 129.2565256478715 106.69163812936887 H 0.0 **** 0.06
27548 H 110.9490736802747 127.87940646270854 107.63396570073547 H 0.0 **** 0.06
27549 H 110.71746504340494 129.54234427219427 108.22792085907253 H 0.0 **** 0.06
27550 H 112.34096134695282 128.81387410778086 108.23251664093107 H 0.0 **** 0.06
27551 C 79.90083771005312 74.45789978800246 82.6869176884052 C 0.0 **** -0.24
27552 H 79.54387946153493 75.38254774117965 83.14037048210714 H 0.0 **** 0.06
27553 H 80.22652099926958 74.65709330649311 81.66574932274446 H 0.0 **** 0.06
27554 H 79.09453150313922 73.72473400424516 82.67531222628811 H 0.0 **** 0.06
27555 H 80.73861169096321 74.06962381850066 83.26669095002015 H 0.0 **** 0.06
27556 C 121.49120827646132 116.78496986188738 10.791449612820543 C 0.0 **** -0.24
27557 H 120.41934462978847 116.77754360499412 10.990320589447833 H 0.0 **** 0.06
27558 H 121.66131452521796 116.9526388045653 9.727959858737222 H 0.0 **** 0.06
27559 H 121.9198454045956 115.82532165395216 11.081873525893855 H 0.0 **** 0.06
27560 H 121.96133197030355 117.58177450331729 11.366765594169692 H 0.0 **** 0.06
27561 C 58.031859052591 54.551940347920294 34.11601395892083 C 0.0 **** -0.24
27562 H 58.31229880751896 55.49240552416043 34.592460575871826 H 0.0 **** 0.06
27563 H 58.68830260098393 54.36641561235777 33.266497126151734 H 0.0 **** 0.06
27564 H 56.99902222417194 54.61309554802284 33.7720929875411 H 0.0 **** 0.06
27565 H 58.12826174547331 53.73904056508982 34.835571406316404 H 0.0 **** 0.06
27566 C 40.581285075573675 25.21003091227955 20.969669181928992 C 0.0 **** -0.24
27567 H 40.758020326846975 24.14994761391864 21.15573531734276 H 0.0 **** 0.06
27568 H 41.43552474406198 25.63167243901627 20.43841070141238 H 0.0 **** 0.06
27569 H 40.45123824558763 25.72850435652149 21.91983001217639 H 0.0 **** 0.06
27570 H 39.682335841500304 25.327352094416504 20.364422546458826 H 0.0 **** 0.06
27571 C 5.441963206870156 23.332950874187247 23.492155571159287 C 0.0 **** -0.24
27572 H 6.3142906360955635 23.77189152499824 23.975211848869293 H 0.0 **** 0.06
27573 H 4.877749693144693 22.750382107790585 24.221447211174308 H 0.0 **** 0.06
27574 H 5.765814021659054 22.68260317408243 22.67938684243299 H 0.0 **** 0.06
27575 H 4.810660204751713 24.126225672144983 23.092842363206216 H 0.0 **** 0.06
27576 C 101.9725296607717 73.58486150123156 78.86404856123781 C 0.0 **** -0.24
27577 H 102.1735146863242 73.85621804816378 79.90046938257746 H 0.0 **** 0.06
27578 H 101.61427941774083 74.46115443839574 78.32283790038014 H 0.0 **** 0.06
27579 H 101.21329581038344 72.80338968626933 78.83407809947809 H 0.0 **** 0.06
27580 H 102.8886705472775 73.22055849183886 78.40034434050688 H 0.0 **** 0.06
27581 C 69.82856309882509 21.1618549227494 70.45541429836535 C 0.0 **** -0.24
27582 H 69.80124731824762 21.406872823138997 69.39419213357193 H 0.0 **** 0.06
27583 H 69.36512013094475 21.966375106215764 71.02593978212712 H 0.0 **** 0.06
27584 H 70.86377132715204 21.040101266058286 70.77309873555002 H 0.0 **** 0.06
27585 H 69.28360682596559 20.233491277380324 70.62724004356704 H 0.0 **** 0.06
27586 C 74.74277694353955 32.797813732206336 48.01212555601177 C 0.0 **** -0.24
27587 H 73.72394732211892 32.92600690403216 47.64807457044918 H 0.0 **** 0.06
27588 H 74.81138817478876 33.16445811393079 49.03697185721376 H 0.0 **** 0.06
27589 H 75.42907699816745 33.36026523570897 47.3784307895109 H 0.0 **** 0.06
27590 H 75.00753539969816 31.740328259808855 47.98614560058394 H 0.0 **** 0.06
27591 C 124.60083736974909 103.5864734021041 105.55707487493723 C 0.0 **** -0.24
27592 H 124.22920742139587 104.24312284836637 106.3428038839309 H 0.0 **** 0.06
27593 H 124.58746862281721 102.55483241626862 105.90910987137119 H 0.0 **** 0.06
27594 H 125.62101672278986 103.87048867637779 105.29959505005299 H 0.0 **** 0.06
27595 H 123.96505538802413 103.6783339992954 104.67586523316449 H 0.0 **** 0.06
27596 C 8.989320688307714 10.178721275183705 56.27327003397352 C 0.0 **** -0.24
27597 H 8.399268383021678 9.60916242599211 55.55401725251858 H 0.0 **** 0.06
27598 H 9.970383183928107 9.71626965465515 56.384676427862075 H 0.0 **** 0.06
27599 H 8.47923838372347 10.18433840980282 57.23666298255239 H 0.0 **** 0.06
27600 H 9.10635252561201 11.201570233438872 55.917198483535515 H 0.0 **** 0.06
27601 C 51.75285497347565 9.953358689290923 6.544150291545549 C 0.0 **** -0.24
27602 H 51.969019836501985 10.844817433593605 5.955054756998493 H 0.0 **** 0.06
27603 H 50.707195043242535 9.968625265298904 6.853378001082575 H 0.0 **** 0.06
27604 H 52.39334743217168 9.938338792920018 7.427067268841142 H 0.0 **** 0.06
27605 H 51.94217934067444 9.065096394952036 5.942530164517564 H 0.0 **** 0.06
27606 C 11.168973341344099 59.96803155185694 83.42802945980321 C 0.0 **** -0.24
27607 H 10.841332456572644 60.035124384429196 84.46590109148391 H 0.0 **** 0.06
27608 H 11.000887084036322 58.955410721724434 83.0594882667042 H 0.0 **** 0.06
27609 H 12.230473595104343 60.20733629501092 83.36603825822951 H 0.0 **** 0.06
27610 H 10.600952382169254 60.67431244903321 82.82291382762699 H 0.0 **** 0.06
27611 C 124.36970697180774 35.62588866188793 118.70074505691711 C 0.0 **** -0.24
27612 H 124.29027200261547 34.56609651400305 118.94533292493456 H 0.0 **** 0.06
27613 H 124.20579106217491 36.21860262869643 119.60087905555628 H 0.0 **** 0.06
27614 H 123.61933845829446 35.88317155903866 117.95358105832844 H 0.0 **** 0.06
27615 H 125.36343990506603 35.83362331425195 118.30405545951885 H 0.0 **** 0.06
27616 C 128.80411114678665 7.493692054256599 47.56787047228113 C 0.0 **** -0.24
27617 H 128.5325600875153 8.025845644996195 46.65553056071002 H 0.0 **** 0.06
27618 H 129.88983922753616 7.426968886692464 47.64032767269725 H 0.0 **** 0.06
27619 H 128.37813545262432 6.490798794919044 47.54159731211752 H 0.0 **** 0.06
27620 H 128.41392749339624 8.031995162341275 48.43150345995775 H 0.0 **** 0.06
27621 C 49.50103939625802 1.0013602851408336 71.37895316868008 C 0.0 **** -0.24
27622 H 50.214483813707716 1.143832201869543 72.19090840888742 H 0.0 **** 0.06
27623 H 50.037513266314306 0.9292180325725212 70.43238103596894 H 0.0 **** 0.06
27624 H 48.815441998214055 1.8472413436530246 71.34514734209841 H 0.0 **** 0.06
27625 H 48.93732069435282 0.08306122008966099 71.54790169761998 H 0.0 **** 0.06
27626 C 69.7102116812413 38.067848285378886 56.193025573703224 C 0.0 **** -0.24
27627 H 68.63186122811796 37.92673947838324 56.251676810421145 H 0.0 **** 0.06
27628 H 70.10902288098178 38.24380332622184 57.19230328594068 H 0.0 **** 0.06
27629 H 69.93069405371962 38.92559176746698 55.55820979833871 H 0.0 **** 0.06
27630 H 70.17114247883458 37.174568892121954 55.76979835962682 H 0.0 **** 0.06
27631 C 85.17526537398844 45.81601822369771 52.486077883916636 C 0.0 **** -0.24
27632 H 85.46439858112285 46.436147432825464 53.33488543090391 H 0.0 **** 0.06
27633 H 84.55792844132561 46.40092607129375 51.803176373074194 H 0.0 **** 0.06
27634 H 84.60851420629531 44.954646993848115 52.84191813226235 H 0.0 **** 0.06
27635 H 86.06964937332204 45.47312267988393 51.96537124170791 H 0.0 **** 0.06
27636 C 58.858063684063524 102.46215419484247 19.935673371897877 C 0.0 **** -0.24
27637 H 58.69694727377251 101.57314976780567 20.544610186460943 H 0.0 **** 0.06
27638 H 59.78439688061164 102.35383417876466 19.370744968199915 H 0.0 **** 0.06
27639 H 58.92604812161747 103.33749262767175 20.58146451597807 H 0.0 **** 0.06
27640 H 58.02351301351251 102.58498492299246 19.245191458489103 H 0.0 **** 0.06
27641 C 50.6512085681271 111.86464880844359 22.015039227378864 C 0.0 **** -0.24
27642 H 51.241208285355896 112.77652165235607 22.11093896332836 H 0.0 **** 0.06
27643 H 49.987914452554946 111.77017243793213 22.87531979190912 H 0.0 **** 0.06
27644 H 51.31891118248521 111.0036034155511 21.974032339575928 H 0.0 **** 0.06
27645 H 50.05892216688554 111.90915101449751 21.10074339079896 H 0.0 **** 0.06
27646 C 9.52947282123489 53.751183542861654 113.13653263371101 C 0.0 **** -0.24
27647 H 9.526084215407224 53.720796524204616 114.22670357861473 H 0.0 **** 0.06
27648 H 10.065046267328313 52.88367008722955 112.75074776366479 H 0.0 **** 0.06
27649 H 10.025079115807756 54.66258578826758 112.80064593662225 H 0.0 **** 0.06
27650 H 8.50325802210611 53.73880274584701 112.769536225831 H 0.0 **** 0.06
27651 C 116.85503700180277 100.93506410477602 95.89059205461604 C 0.0 **** -0.24
27652 H 117.87753869373115 100.5706425341455 95.98365448176213 H 0.0 **** 0.06
27653 H 116.86119011233498 101.91897681901607 95.4223182666741 H 0.0 **** 0.06
27654 H 116.40333961135244 101.007019733323 96.88056598821055 H 0.0 **** 0.06
27655 H 116.2766129990599 100.2433533305928 95.27843330940317 H 0.0 **** 0.06
27656 C 45.34270369218427 49.190183032071985 123.58531152320076 C 0.0 **** -0.24
27657 H 45.79773884000804 48.43868833414339 122.94020517917355 H 0.0 **** 0.06
27658 H 45.82155165067647 50.15430524977303 123.41305162101253 H 0.0 **** 0.06
27659 H 45.47276991547531 48.900607094327896 124.62801810620009 H 0.0 **** 0.06
27660 H 44.27915994321572 49.26662497710237 123.35921023605424 H 0.0 **** 0.06
27661 C 105.35127834044766 4.640066168716714 81.31107852153905 C 0.0 **** -0.24
27662 H 106.26742939761499 5.033925749979403 80.87207249767548 H 0.0 **** 0.06
27663 H 104.68435326914909 5.466009577204545 81.56032731394036 H 0.0 **** 0.06
27664 H 105.59200573186928 4.0811324107423275 82.21589170640945 H 0.0 **** 0.06
27665 H 104.86038880215636 3.9802074066749356 80.59570215372018 H 0.0 **** 0.06
27666 C 106.48759743727751 95.389729098383 25.77734024169706 C 0.0 **** -0.24
27667 H 106.40322641527837 96.25704335870378 25.122208194544385 H 0.0 **** 0.06
27668 H 105.992704474924 95.60167603468444 26.72527638913283 H 0.0 **** 0.06
27669 H 107.54101676594544 95.17204852288259 25.957524689726142 H 0.0 **** 0.06
27670 H 106.01394466413318 94.53006772470529 25.304098443977125 H 0.0 **** 0.06
27671 C 65.96876401894255 95.92823340156033 121.81611867199143 C 0.0 **** -0.24
27672 H 66.72223014988796 95.99139729220663 121.03188496643352 H 0.0 **** 0.06
27673 H 66.24492402367773 95.14471209755024 122.52212257854973 H 0.0 **** 0.06
27674 H 65.0007494201611 95.69403750536505 121.37298833285217 H 0.0 **** 0.06
27675 H 65.9077916442319 96.88345128248369 122.33951598865565 H 0.0 **** 0.06
27676 C 26.90960554984771 87.46906028701562 125.01070912371215 C 0.0 **** -0.24
27677 H 26.346635623539626 88.40214521118324 125.04261341617962 H 0.0 **** 0.06
27678 H 26.473480712496567 86.7579891741529 125.71238388624631 H 0.0 **** 0.06
27679 H 27.9464291591461 87.66109707347192 125.28426911339409 H 0.0 **** 0.06
27680 H 26.870038526482574 87.05578296664726 124.00255843459138 H 0.0 **** 0.06
27681 C 26.49331067802376 10.573951298215036 26.98582372197339 C 0.0 **** -0.24
27682 H 26.294224087634205 10.125752867706979 27.95895019470896 H 0.0 **** 0.06
27683 H 27.267896806930054 11.33380696154444 27.086507066362373 H 0.0 **** 0.06
27684 H 25.58085625226329 11.032768666170341 26.604215221679624 H 0.0 **** 0.06
27685 H 26.828750129565265 9.801845489722552 26.292601155067786 H 0.0 **** 0.06
27686 C 42.87644097836923 70.49504561611087 67.63076644784607 C 0.0 **** -0.24
27687 H 43.62313273716131 71.13473792783776 68.10051275697475 H 0.0 **** 0.06
27688 H 43.15345818769592 69.44912984850129 67.77260189167197 H 0.0 **** 0.06
27689 H 42.827910112352626 70.71622246548787 66.56399557668055 H 0.0 **** 0.06
27690 H 41.903222815419625 70.6778713904315 68.08547907212579 H 0.0 **** 0.06
27691 C 16.894948463146818 102.59282537017295 19.180339092527845 C 0.0 **** -0.24
27692 H 16.806010793789156 103.51643746405266 19.750928413601088 H 0.0 **** 0.06
27693 H 15.917397254684758 102.11453920901494 19.10899115511225 H 0.0 **** 0.06
27694 H 17.591389905157556 101.9216461585984 19.682507620136306 H 0.0 **** 0.06
27695 H 17.26325019581921 102.81745745562696 18.179608509596846 H 0.0 **** 0.06
27696 C 49.36773129649684 31.327402007124753 46.11708594548117 C 0.0 **** -0.24
27697 H 49.195939657273 31.664915879432428 47.13946431035522 H 0.0 **** 0.06
27698 H 50.37546376199336 31.60561399512894 45.80860282344174 H 0.0 **** 0.06
27699 H 48.64143642608579 31.797769489147868 45.453627047824746 H 0.0 **** 0.06
27700 H 49.25794586842625 30.24411166169633 46.06841718942048 H 0.0 **** 0.06
27701 C 66.94167972261454 70.48493987341833 50.511569536558625 C 0.0 **** -0.24
27702 H 67.22678628212577 70.60760112262594 49.4666978044624 H 0.0 **** 0.06
27703 H 67.6829454772496 70.96658914168276 51.14900621212428 H 0.0 **** 0.06
27704 H 66.8902093657575 69.422832604275 50.75195140638277 H 0.0 **** 0.06
27705 H 65.96662174479329 70.94368683552283 50.67835288317292 H 0.0 **** 0.06
27706 C 65.9741661075956 26.41635366626886 108.94882447528312 C 0.0 **** -0.24
27707 H 66.00833053172944 25.832621599252576 109.86840813351722 H 0.0 **** 0.06
27708 H 65.02797505329826 26.956183116299542 108.89514761197233 H 0.0 **** 0.06
27709 H 66.0595690972891 25.748336602913156 108.09142139947443 H 0.0 **** 0.06
27710 H 66.79961238550297 27.12706764179441 108.93885093541724 H 0.0 **** 0.06
27711 C 15.72887074763355 105.24246591656271 89.14569505842799 C 0.0 **** -0.24
27712 H 15.597579196863279 105.06324668435866 88.07894324981527 H 0.0 **** 0.06
27713 H 16.78475600807141 105.15552202789428 89.40092342331113 H 0.0 **** 0.06
27714 H 15.155873774368985 104.50710126761788 89.71104522001897 H 0.0 **** 0.06
27715 H 15.376392023223616 106.24389309735841 89.39140786803293 H 0.0 **** 0.06
27716 C 74.54024199298146 13.077106108601157 31.081653239984917 C 0.0 **** -0.24
27717 H 75.13759476998203 12.360520989048013 30.517934430690502 H 0.0 **** 0.06
27718 H 74.15813505773232 13.842154363088298 30.405852290813613 H 0.0 **** 0.06
27719 H 75.15950346350513 13.543419705586075 31.84743276963141 H 0.0 **** 0.06
27720 H 73.7044568933467 12.560388034230115 31.554619657043133 H 0.0 **** 0.06
27721 C 25.96117833254999 36.16992772481257 64.00549476147117 C 0.0 **** -0.24
27722 H 26.40830657876967 37.045000699966295 63.53423042965747 H 0.0 **** 0.06
27723 H 24.940174375524975 36.04471153874698 63.64465087662754 H 0.0 **** 0.06
27724 H 25.951661422424195 36.30443260120717 65.08660450313633 H 0.0 **** 0.06
27725 H 26.546702907540464 35.28411806436685 63.754405486977134 H 0.0 **** 0.06
27726 C 4.306394986810858 47.82408508580505 21.627964593278378 C 0.0 **** -0.24
27727 H 3.395255792767159 48.389574606450054 21.824248728954487 H 0.0 **** 0.06
27728 H 4.941966441324979 48.38757850282508 20.943326234365884 H 0.0 **** 0.06
27729 H 4.049246828365668 46.864490632934036 21.180321055246395 H 0.0 **** 0.06
27730 H 4.8385667454904535 47.65776570942265 22.56449625105087 H 0.0 **** 0.06
27731 C 126.22100016066057 55.55171473722646 45.88315476494154 C 0.0 **** -0.24
27732 H 126.0206181371054 56.22075541692122 45.046471391917294 H 0.0 **** 0.06
27733 H 126.8759448105425 56.05100293937926 46.59834659800282 H 0.0 **** 0.06
27734 H 126.7052268092144 54.64717696913554 45.516816970712114 H 0.0 **** 0.06
27735 H 125.28259478438852 55.288809008019314 46.37124634330769 H 0.0 **** 0.06
27736 C 33.43109596718387 40.48454824230282 126.65611399838815 C 0.0 **** -0.24
27737 H 33.919025480566134 39.89371539626809 127.43166402098144 H 0.0 **** 0.06
27738 H 33.06970505803186 41.42010629131239 127.08447516379681 H 0.0 **** 0.06
27739 H 32.59156434552766 39.923751506462764 126.24554593570814 H 0.0 **** 0.06
27740 H 34.14614567010767 40.70103150884941 125.8615056237492 H 0.0 **** 0.06
27741 C 53.319086680754225 36.71200471919863 122.07358772859914 C 0.0 **** -0.24
27742 H 54.38709968316053 36.57361909745899 121.90469389027072 H 0.0 **** 0.06
27743 H 52.785157861826235 36.60599152469196 121.12914201845325 H 0.0 **** 0.06
27744 H 53.142266379022175 37.70793998270352 122.48112553674383 H 0.0 **** 0.06
27745 H 52.96290015826 35.96266788294193 122.77942613193943 H 0.0 **** 0.06
27746 C 58.22363174979941 117.76946963838364 47.26811743048967 C 0.0 **** -0.24
27747 H 57.48115934873093 118.55879996771891 47.15018168157383 H 0.0 **** 0.06
27748 H 59.07280153300357 117.97070326590844 46.61468327028547 H 0.0 **** 0.06
27749 H 57.77889363811276 116.81092090674669 47.00132201614099 H 0.0 **** 0.06
27750 H 58.560338317043005 117.73927719240122 48.30329975713164 H 0.0 **** 0.06
27751 C 18.549352232181548 73.05149080729072 70.45527087843357 C 0.0 **** -0.24
27752 H 19.373421419899117 72.50998825616183 70.91984857176766 H 0.0 **** 0.06
27753 H 18.818304964096555 74.10377876738391 70.35427561018494 H 0.0 **** 0.06
27754 H 17.659643536396402 72.96180496291903 71.0782631220327 H 0.0 **** 0.06
27755 H 18.34743851942673 72.63143628706611 69.47009246571281 H 0.0 **** 0.06
27756 C 90.31906446409275 0.007532288081961269 42.1505870095491 C 0.0 **** -0.24
27757 H 90.43784392171855 0.3535082023894347 41.12344747805588 H 0.0 **** 0.06
27758 H 89.53691087849876 -0.7501392413139456 42.19021089704751 H 0.0 **** 0.06
27759 H 90.04485843312455 0.8486915046862578 42.78626194442293 H 0.0 **** 0.06
27760 H 91.25923554913788 -0.42117643879123534 42.49983579863624 H 0.0 **** 0.06
27761 C 98.14079446893021 55.44957700834658 124.91081162272542 C 0.0 **** -0.24
27762 H 97.76044302789931 54.471055373993366 124.61950319134314 H 0.0 **** 0.06
27763 H 99.04114299008918 55.32497113269913 125.51313830597428 H 0.0 **** 0.06
27764 H 97.38399655235831 55.97526260806168 125.49336467025176 H 0.0 **** 0.06
27765 H 98.378544217187 56.02786573626021 124.01841617796805 H 0.0 **** 0.06
27766 C 39.4895954936905 94.5455020320068 109.87476027120701 C 0.0 **** -0.24
27767 H 39.892455587422944 95.34399104088425 110.49866617376793 H 0.0 **** 0.06
27768 H 39.13299145922326 93.73435886100606 110.50965301358374 H 0.0 **** 0.06
27769 H 40.27205429558563 94.17308015619506 109.21224405392968 H 0.0 **** 0.06
27770 H 38.662950624951236 94.93161426775151 109.27927894352212 H 0.0 **** 0.06
27771 C 116.49757652427499 111.9372937230633 117.45185060103076 C 0.0 **** -0.24
27772 H 115.9526771213827 111.62304271811382 116.56263784850671 H 0.0 **** 0.06
27773 H 115.82819972067657 112.48944870636535 118.11235048770953 H 0.0 **** 0.06
27774 H 117.33110625180511 112.57722297438306 117.16058049755196 H 0.0 **** 0.06
27775 H 116.87949740674888 111.0592707119363 117.97439973616804 H 0.0 **** 0.06
27776 C 14.368850836567518 43.649691303841735 64.36340461497915 C 0.0 **** -0.24
27777 H 14.547662407667687 42.66213046250209 63.93767524280449 H 0.0 **** 0.06
27778 H 14.04721495035679 43.546065023632764 65.40011068117133 H 0.0 **** 0.06
27779 H 13.592064000977217 44.157189874718625 63.79024934964015 H 0.0 **** 0.06
27780 H 15.288827505046484 44.23324530082826 64.32422362609294 H 0.0 **** 0.06
27781 C 30.332167323608942 80.11397122053839 127.91659844329143 C 0.0 **** -0.24
27782 H 30.266021080200048 81.04068700152592 127.34705917806912 H 0.0 **** 0.06
27783 H 29.670327118712308 79.36914262370797 127.47510285689901 H 0.0 **** 0.06
27784 H 30.034360391397733 80.29964393313443 128.94783510924663 H 0.0 **** 0.06
27785 H 31.35837853519579 79.74776293995569 127.89539726977011 H 0.0 **** 0.06
27786 C 108.13614711362118 44.458255992006094 104.05340379606304 C 0.0 **** -0.24
27787 H 107.23388057643535 43.85712441786768 104.1675283621191 H 0.0 **** 0.06
27788 H 108.7272245825261 44.402243324431545 104.9683980950754 H 0.0 **** 0.06
27789 H 107.86027121091763 45.495180141631366 103.86173673772154 H 0.0 **** 0.06
27790 H 108.7230752324935 44.0782618655929 103.21734320960334 H 0.0 **** 0.06
27791 C 0.39632833160518466 11.463358662332212 130.18954972161868 C 0.0 **** -0.24
27792 H -0.37566293966295383 10.933223947254021 129.63147880281744 H 0.0 **** 0.06
27793 H 0.6937523300788584 10.868812488684625 131.0530439325473 H 0.0 **** 0.06
27794 H 0.0077326100096613 12.424305380950813 130.52578208742605 H 0.0 **** 0.06
27795 H 1.2608697006403453 11.627043244363676 129.54522983248097 H 0.0 **** 0.06
27796 C 88.43706639379168 97.00764569126358 29.777422095831184 C 0.0 **** -0.24
27797 H 88.94949619092533 96.42142210567442 29.013847510924506 H 0.0 **** 0.06
27798 H 88.2471322469392 96.38084682468127 30.64895906819436 H 0.0 **** 0.06
27799 H 87.49161239689678 97.37510775153714 29.380312841315344 H 0.0 **** 0.06
27800 H 89.06332914604855 97.85196442207769 30.06730374750977 H 0.0 **** 0.06
27801 C 117.86917836528164 84.46423132786124 123.76397989200318 C 0.0 **** -0.24
27802 H 117.53620140057552 84.78933447869215 122.778281279048 H 0.0 **** 0.06
27803 H 117.11485635331516 84.72359067164291 124.50610079975436 H 0.0 **** 0.06
27804 H 118.80826995597701 84.95918020343738 124.01130975468949 H 0.0 **** 0.06
27805 H 118.01916030831984 83.38486657900053 123.75853980401735 H 0.0 **** 0.06
27806 C 130.33074070562742 15.435751103408222 29.21070693668141 C 0.0 **** -0.24
27807 H 130.699631669837 16.403812892682055 28.87517278056535 H 0.0 **** 0.06
27808 H 130.79987951363793 15.176090604170469 30.15942957523464 H 0.0 **** 0.06
27809 H 130.57319896868444 14.677056784391397 28.465819391203958 H 0.0 **** 0.06
27810 H 129.24912389354762 15.483955359454654 29.340572043860647 H 0.0 **** 0.06
27811 C 122.0439999285496 68.07376882553487 8.297951538402955 C 0.0 **** -0.24
27812 H 121.62912872501894 67.16141831913451 8.726291240687633 H 0.0 **** 0.06
27813 H 122.32160237126604 67.89204013275032 7.259334151920687 H 0.0 **** 0.06
27814 H 122.9264558964513 68.37201252852353 8.863101580750644 H 0.0 **** 0.06
27815 H 121.29805085284534 68.86716350901779 8.340966692394876 H 0.0 **** 0.06
27816 C 61.34933130493913 22.116055152555532 128.58767132558722 C 0.0 **** -0.24
27817 H 62.435215651703786 22.181579444794636 128.51087750283173 H 0.0 **** 0.06
27818 H 61.04965839701099 21.06889117702974 128.62076497818313 H 0.0 **** 0.06
27819 H 60.89516502887305 22.597095167542136 127.72144100818647 H 0.0 **** 0.06
27820 H 61.0182748938588 22.618523399866888 129.49687307292015 H 0.0 **** 0.06
27821 C 110.20437850271247 79.1193607352872 76.24970465187442 C 0.0 **** -0.24
27822 H 109.35518546697242 79.789172474459 76.38525867988434 H 0.0 **** 0.06
27823 H 110.94914519216988 79.60018347226296 75.61480498120525 H 0.0 **** 0.06
27824 H 109.86562848799005 78.19643645171074 75.7783081091471 H 0.0 **** 0.06
27825 H 110.64561489640303 78.89106845346207 77.21949921989813 H 0.0 **** 0.06
27826 C 43.10759245987376 73.61966326280249 51.17908101150772 C 0.0 **** -0.24
27827 H 42.1200233582702 73.92349052364844 51.52691396298685 H 0.0 **** 0.06
27828 H 43.56611185745652 72.96211863317849 51.91816120557198 H 0.0 **** 0.06
27829 H 43.73053671904492 74.50172134157403 51.04009786782697 H 0.0 **** 0.06
27830 H 43.011017808290205 73.08905444687362 50.23197168370672 H 0.0 **** 0.06
27831 C 24.51647980283778 92.4598318835119 88.8394728348253 C 0.0 **** -0.24
27832 H 24.334726413472396 93.29833383507827 88.16623385551082 H 0.0 **** 0.06
27833 H 24.057644581493122 91.56014542670707 88.42863220236325 H 0.0 **** 0.06
27834 H 24.08158271773479 92.67636736999293 89.81494161848877 H 0.0 **** 0.06
27835 H 25.5902289764976 92.30588452817321 88.94461735708478 H 0.0 **** 0.06
27836 C 30.671091597862073 107.62601543722977 39.675792739329026 C 0.0 **** -0.24
27837 H 30.771362004944535 106.55232229289348 39.83145998388183 H 0.0 **** 0.06
27838 H 31.188916562491045 107.90926916351364 38.75960111946958 H 0.0 **** 0.06
27839 H 31.108756907169834 108.15850036453074 40.5203786535171 H 0.0 **** 0.06
27840 H 29.61552146833992 107.88299712771686 39.59159926970099 H 0.0 **** 0.06
27841 C 115.29007753381254 99.31383883574543 68.84666985494945 C 0.0 **** -0.24
27842 H 115.45176979681807 99.50540597118885 69.90785841619824 H 0.0 **** 0.06
27843 H 116.11605582947954 98.71829173551922 68.45579383169284 H 0.0 **** 0.06
27844 H 115.23896989242607 100.26113948265103 68.30990178262881 H 0.0 **** 0.06
27845 H 114.35478130498583 98.77033651884767 68.7137275695276 H 0.0 **** 0.06
27846 C 58.47290002620551 25.570966632605753 12.738782819909673 C 0.0 **** -0.24
27847 H 58.87867884188843 25.809156889013657 13.721611585097225 H 0.0 **** 0.06
27848 H 57.38524861148018 25.5276937095219 12.79673392172857 H 0.0 **** 0.06
27849 H 58.85870314440112 24.606078161689005 12.41029135396516 H 0.0 **** 0.06
27850 H 58.76859538123129 26.342534988317908 12.027050379274456 H 0.0 **** 0.06
27851 C 112.25470230692179 105.5718297761612 36.60058941041929 C 0.0 **** -0.24
27852 H 113.2368526727984 105.88998994157765 36.94929874601347 H 0.0 **** 0.06
27853 H 112.25877155252496 104.49433689648166 36.436138803010266 H 0.0 **** 0.06
27854 H 112.01704336501778 106.0817798185752 35.667370457806484 H 0.0 **** 0.06
27855 H 111.50524002230902 105.82178634798984 37.351513816326865 H 0.0 **** 0.06
27856 C 112.50287518652533 96.05506944970884 6.786605656453872 C 0.0 **** -0.24
27857 H 113.01636497132529 95.7845593642628 7.7089591544098255 H 0.0 **** 0.06
27858 H 113.23781946324459 96.32226798042106 6.027457903731886 H 0.0 **** 0.06
27859 H 111.84611577639498 96.90571034612847 6.9727230760589975 H 0.0 **** 0.06
27860 H 111.9112608603674 95.20879344951757 6.4386561729500045 H 0.0 **** 0.06
27861 C 11.772261223258095 80.46956858706227 6.718041996562619 C 0.0 **** -0.24
27862 H 12.434104409357428 79.7271113113898 6.271000256116707 H 0.0 **** 0.06
27863 H 11.56351060073268 81.25525533235978 5.991072219905448 H 0.0 **** 0.06
27864 H 12.252273271418527 80.90313133494222 7.594913253673383 H 0.0 **** 0.06
27865 H 10.838814479714152 79.9908016610332 7.014190413918868 H 0.0 **** 0.06
27866 C 55.68180298972288 112.54753908340075 23.808749398023103 C 0.0 **** -0.24
27867 H 54.99703674174185 112.62245227016899 24.65378827167298 H 0.0 **** 0.06
27868 H 55.855044229010446 113.53973503585593 23.391959116345895 H 0.0 **** 0.06
27869 H 55.24709530021238 111.90229110280615 23.04435171177289 H 0.0 **** 0.06
27870 H 56.62860382958479 112.12487239049165 24.14506697235482 H 0.0 **** 0.06
27871 C 45.076816169643706 116.29811705841668 120.63132668213817 C 0.0 **** -0.24
27872 H 45.14025827484599 115.62871168591394 121.48867606505843 H 0.0 **** 0.06
27873 H 44.33714801103585 115.91664839838437 119.92659041081848 H 0.0 **** 0.06
27874 H 46.04936526884305 116.35454752801888 120.1423652088616 H 0.0 **** 0.06
27875 H 44.781348627798366 117.29177661001542 120.96686661872795 H 0.0 **** 0.06
27876 C 15.55311449357339 84.26472201963766 92.42302985053209 C 0.0 **** -0.24
27877 H 14.774437013592689 84.82530265345763 92.93958784989513 H 0.0 **** 0.06
27878 H 15.962908482544776 83.51042999380962 93.09525595362481 H 0.0 **** 0.06
27879 H 16.346491821329636 84.94564344365185 92.1142679383695 H 0.0 **** 0.06
27880 H 15.128949167528475 83.77849598233303 91.54498859812077 H 0.0 **** 0.06
27881 C 104.15800085628825 22.089442069307495 60.29808737956924 C 0.0 **** -0.24
27882 H 105.15609596751185 22.258951262211355 60.703303753216716 H 0.0 **** 0.06
27883 H 104.0234309535256 21.025965663877656 60.09921210149736 H 0.0 **** 0.06
27884 H 104.04278206207363 22.650202994713965 59.370225151302506 H 0.0 **** 0.06
27885 H 103.41192142135179 22.421647906133856 61.01940851711312 H 0.0 **** 0.06
27886 C 129.9574216185927 36.63375948313464 85.58063607326454 C 0.0 **** -0.24
27887 H 130.9906948467134 36.295851349425675 85.50138331522658 H 0.0 **** 0.06
27888 H 129.9376707268939 37.65856651473186 85.953398735164 H 0.0 **** 0.06
27889 H 129.4149586963353 35.98515460683319 86.26892249262414 H 0.0 **** 0.06
27890 H 129.48671702870453 36.59475431876092 84.59823276436123 H 0.0 **** 0.06
27891 C 45.1186302501944 43.3234968851437 49.339718585616254 C 0.0 **** -0.24
27892 H 45.388955869736066 42.76565814943285 50.23570207593744 H 0.0 **** 0.06
27893 H 44.95007438925339 42.629163361409155 48.51643409002503 H 0.0 **** 0.06
27894 H 45.92795192112692 44.00621821622849 49.079769515223745 H 0.0 **** 0.06
27895 H 44.20870628208732 43.89324230872728 49.527710563078415 H 0.0 **** 0.06
27896 C 96.49411730371546 120.41678177227428 52.87660873196684 C 0.0 **** -0.24
27897 H 96.06138831431204 120.46031214075913 53.87671236087766 H 0.0 **** 0.06
27898 H 97.32067183973774 119.70502407216019 52.87004048530136 H 0.0 **** 0.06
27899 H 96.86245286225358 121.40430367615656 52.59758380444916 H 0.0 **** 0.06
27900 H 95.73312924982653 120.09776297005747 52.16564068953845 H 0.0 **** 0.06
27901 C 5.809918536451335 75.3745659920941 88.69902084450146 C 0.0 **** -0.24
27902 H 5.122532914407117 75.49990735999656 87.8627368086955 H 0.0 **** 0.06
27903 H 6.615502337250604 74.69929790578199 88.40906003160902 H 0.0 **** 0.06
27904 H 5.273205737805341 74.95647339388377 89.55011741468962 H 0.0 **** 0.06
27905 H 6.227862778629486 76.34370042004892 88.97351238267186 H 0.0 **** 0.06
27906 C 106.75928324219572 25.653147958847 64.73761036766975 C 0.0 **** -0.24
27907 H 105.86602490542957 25.65298296028385 64.11374665574378 H 0.0 **** 0.06
27908 H 106.69387337086161 24.84527831171127 65.46673016339382 H 0.0 **** 0.06
27909 H 106.83800985538406 26.607105689350732 65.25963553401891 H 0.0 **** 0.06
27910 H 107.64024598378988 25.50829517222101 64.11167520260803 H 0.0 **** 0.06
27911 C 109.58940024076026 56.05903394001362 25.995185288263855 C 0.0 **** -0.24
27912 H 108.73383513673991 56.18984285061923 26.65811958237427 H 0.0 **** 0.06
27913 H 109.24249781291576 55.99460772416194 24.964410154858683 H 0.0 **** 0.06
27914 H 110.11672322048253 55.14226132802678 26.260204080670803 H 0.0 **** 0.06
27915 H 110.2633899242366 56.90865624288362 26.101181877314616 H 0.0 **** 0.06
27916 C 130.7261304034969 91.57146331867727 26.914186968382353 C 0.0 **** -0.24
27917 H 130.70746874270117 91.90559795360139 27.952206879006752 H 0.0 **** 0.06
27918 H 130.26478514304782 90.58645922349478 26.84213863881996 H 0.0 **** 0.06
27919 H 131.75817826572077 91.51564835013824 26.569942443479775 H 0.0 **** 0.06
27920 H 130.1735175974301 92.2787571481332 26.295341249534204 H 0.0 **** 0.06
27921 C 10.869433907907819 102.00108392436678 76.9151119129355 C 0.0 **** -0.24
27922 H 10.219489311115126 101.16306400972337 76.66260620277095 H 0.0 **** 0.06
27923 H 10.478760611835469 102.51101040223162 77.79571218141109 H 0.0 **** 0.06
27924 H 10.904920585825664 102.69718376786557 76.07667216435775 H 0.0 **** 0.06
27925 H 11.873338063483175 101.63154250532034 77.12399477692169 H 0.0 **** 0.06
27926 C 77.0061171321461 124.9322065914014 106.97778909397697 C 0.0 **** -0.24
27927 H 76.74058624328647 125.82297053452265 107.54574536607083 H 0.0 **** 0.06
27928 H 76.3637994055784 124.8559785174142 106.09993959726457 H 0.0 **** 0.06
27929 H 76.87229695519403 124.04887616419384 107.60272510759515 H 0.0 **** 0.06
27930 H 78.04728989988027 124.99942113344017 106.66124371101122 H 0.0 **** 0.06
27931 C 56.52386018174403 68.55249896246171 107.9237828963804 C 0.0 **** -0.24
27932 H 55.788670365322545 69.03244390293077 107.27781133418404 H 0.0 **** 0.06
27933 H 56.56814656533156 69.07887822198332 108.87755912583998 H 0.0 **** 0.06
27934 H 57.502573075940276 68.5823652538101 107.44593617470827 H 0.0 **** 0.06
27935 H 56.234352455581984 67.51486951233856 108.09403843154863 H 0.0 **** 0.06
27936 C 41.30059640757196 77.15493259624942 8.079781652999543 C 0.0 **** -0.24
27937 H 41.88054320896305 78.01062136874533 7.7350167145565365 H 0.0 **** 0.06
27938 H 40.23981285102667 77.34612000629318 7.9189678906373615 H 0.0 **** 0.06
27939 H 41.4856372129633 76.99483146130842 9.141778345364571 H 0.0 **** 0.06
27940 H 41.598771709746416 76.26727949638958 7.521761097908723 H 0.0 **** 0.06
27941 C 57.791436052876804 83.90700356306094 41.266229196409085 C 0.0 **** -0.24
27942 H 57.12902439804009 83.06703218319221 41.05202492728037 H 0.0 **** 0.06
27943 H 57.4355149896283 84.79316754661417 40.74014736279008 H 0.0 **** 0.06
27944 H 58.800294699509436 83.66672470886762 40.93375564980356 H 0.0 **** 0.06
27945 H 57.79794424770523 84.09827107070562 42.33949797801614 H 0.0 **** 0.06
27946 C 123.84339616410557 104.87150354788562 111.25169587978687 C 0.0 **** -0.24
27947 H 124.30520683146077 104.07984378401491 111.84302935855234 H 0.0 **** 0.06
27948 H 124.53523009384574 105.71065227772797 111.1672222427733 H 0.0 **** 0.06
27949 H 122.9281961397308 105.20316087363648 111.74172524800409 H 0.0 **** 0.06
27950 H 123.60741682152165 104.49211828050687 110.2576113648631 H 0.0 **** 0.06
27951 C 63.136459650418374 102.93345710800594 111.10702320621516 C 0.0 **** -0.24
27952 H 63.780545000924405 102.05617490288591 111.16205437647884 H 0.0 **** 0.06
27953 H 62.09450372722665 102.62515528364821 111.19636716267136 H 0.0 **** 0.06
27954 H 63.287070997297974 103.43356910714067 110.14979714372326 H 0.0 **** 0.06
27955 H 63.385712437444454 103.61784170464495 111.91791360503362 H 0.0 **** 0.06
27956 C 78.29220900366153 24.949812954904758 46.56045829494454 C 0.0 **** -0.24
27957 H 77.39988243427517 25.510438157246853 46.28241669402574 H 0.0 **** 0.06
27958 H 78.4357991886668 24.124316309581047 45.86262259129148 H 0.0 **** 0.06
27959 H 78.17452484306033 24.55636991921881 47.57002229611584 H 0.0 **** 0.06
27960 H 79.15967607658864 25.61004488928853 46.52629366259315 H 0.0 **** 0.06
27961 C 123.01261248537517 13.475806224231206 100.3919595610044 C 0.0 **** -0.24
27962 H 122.66358772327737 13.161850007754875 101.37523807193097 H 0.0 **** 0.06
27963 H 122.21669396177867 13.330404616207886 99.66128345701705 H 0.0 **** 0.06
27964 H 123.88076125958077 12.881189279334627 100.10696151678829 H 0.0 **** 0.06
27965 H 123.28842547713481 14.529858173996004 100.42417993230825 H 0.0 **** 0.06
27966 C 52.32069718311337 1.3086554190667812 87.33637855166435 C 0.0 **** -0.24
27967 H 52.04169171358372 1.7956780379358577 88.27096744957475 H 0.0 **** 0.06
27968 H 53.068090200646836 1.9119416555863893 86.82164480476848 H 0.0 **** 0.06
27969 H 51.43994347791623 1.2026362522138356 86.70503302448196 H 0.0 **** 0.06
27970 H 52.73396951837081 0.3227124809953068 87.55179915305746 H 0.0 **** 0.06
27971 C 90.74637126743767 58.12063411726044 93.30810648895346 C 0.0 **** -0.24
27972 H 91.28959223113313 57.522000924524065 92.57672917907195 H 0.0 **** 0.06
27973 H 89.69833838169072 58.18900378516676 93.0130840499744 H 0.0 **** 0.06
27974 H 91.17807387481889 59.12094093286416 93.3511720680014 H 0.0 **** 0.06
27975 H 90.81805369596506 57.65076445722062 94.28845160143254 H 0.0 **** 0.06
27976 C 19.608474381565685 44.13757455548472 89.95875099049502 C 0.0 **** -0.24
27977 H 19.908630014195722 43.08986333401354 89.95092485970451 H 0.0 **** 0.06
27978 H 18.794907976030544 44.28791351831656 89.24994685523663 H 0.0 **** 0.06
27979 H 20.457745388397683 44.76061084488356 89.67566073790667 H 0.0 **** 0.06
27980 H 19.274801343543544 44.411424630838155 90.96019792993795 H 0.0 **** 0.06
27981 C 58.90325487156841 64.96108099732447 29.15955218153013 C 0.0 **** -0.24
27982 H 59.976119022084816 64.77238730125259 29.12618072826902 H 0.0 **** 0.06
27983 H 58.42441229091392 64.22075202738625 29.801582828436267 H 0.0 **** 0.06
27984 H 58.49051436518158 64.89124524603224 28.153819296953714 H 0.0 **** 0.06
27985 H 58.72245386044003 65.95893055436207 29.5582847800859 H 0.0 **** 0.06
27986 C 52.636549082033866 27.81922440035862 46.940916270354094 C 0.0 **** -0.24
27987 H 53.490605266576495 27.14305315508659 46.966546411770196 H 0.0 **** 0.06
27988 H 52.235830000304105 27.936012559954733 47.94856913498771 H 0.0 **** 0.06
27989 H 51.86673242852305 27.40804489071246 46.287886253994586 H 0.0 **** 0.06
27990 H 52.9546653247491 28.791163020235345 46.561858325165204 H 0.0 **** 0.06
27991 C 4.3138919375953115 48.12573144090396 52.40927422590917 C 0.0 **** -0.24
27992 H 4.189273806565488 49.18993183920486 52.60944241588183 H 0.0 **** 0.06
27993 H 3.40471904027315 47.73434451255497 51.95158716108361 H 0.0 **** 0.06
27994 H 4.504261675663681 47.59998517072171 53.34472634680881 H 0.0 **** 0.06
27995 H 5.1544054767466 47.97916286530182 51.73188582923078 H 0.0 **** 0.06
27996 C 53.16226899590055 128.23196149729642 80.90179993876754 C 0.0 **** -0.24
27997 H 52.87543033610963 127.28227254958155 81.35249485912212 H 0.0 **** 0.06
27998 H 53.226176452924406 128.11591128783067 79.81972292002351 H 0.0 **** 0.06
27999 H 54.13112343424878 128.54262239949054 81.2926251443736 H 0.0 **** 0.06
28000 H 52.41429081429041 128.98834294518207 81.14207536968681 H 0.0 **** 0.06
28001 C 90.43193094518638 24.85875907871946 50.80969072861714 C 0.0 **** -0.24
28002 H 90.60577657529754 25.89105060977812 50.50939213496045 H 0.0 **** 0.06
28003 H 89.5317776165269 24.485204925952303 50.32066946373297 H 0.0 **** 0.06
28004 H 90.30380026662168 24.81060576801036 51.89087121045637 H 0.0 **** 0.06
28005 H 91.28467414315087 24.2464070368938 50.51786125694585 H 0.0 **** 0.06
28006 C 32.39175854495517 65.63730790341347 11.325625103568314 C 0.0 **** -0.24
28007 H 31.750644580424648 65.62783793867183 10.443909333973068 H 0.0 **** 0.06
28008 H 32.26601900505972 64.70370759377671 11.874693900740539 H 0.0 **** 0.06
28009 H 32.11731566918792 66.47532667414161 11.96542120553724 H 0.0 **** 0.06
28010 H 33.43208054938299 65.74057571570818 11.017108723967937 H 0.0 **** 0.06
28011 C 54.463676426685396 49.434121458551914 5.959995127947735 C 0.0 **** -0.24
28012 H 54.72467784192233 49.88814580104135 5.00464044850105 H 0.0 **** 0.06
28013 H 54.44971395890289 48.34899021200225 5.85503927302544 H 0.0 **** 0.06
28014 H 53.478354790590544 49.782292058343714 6.2696577980610755 H 0.0 **** 0.06
28015 H 55.201959115325764 49.71705776282063 6.7106429922031055 H 0.0 **** 0.06
28016 C 32.48125409509987 86.93076636846153 15.859526467600631 C 0.0 **** -0.24
28017 H 31.479099835961122 87.02020442220221 15.441104306150692 H 0.0 **** 0.06
28018 H 32.44607323620522 86.31570834213372 16.758788613410786 H 0.0 **** 0.06
28019 H 32.859030289244814 87.92193984564702 16.11201963406708 H 0.0 **** 0.06
28020 H 33.14068029788749 86.46648055353322 15.126806064607536 H 0.0 **** 0.06
28021 C 89.0020077041965 126.01052982536098 34.94238155833477 C 0.0 **** -0.24
28022 H 88.32009058006926 125.28865177979162 34.4941856959814 H 0.0 **** 0.06
28023 H 88.68942905296001 126.21805031439098 35.96632314161096 H 0.0 **** 0.06
28024 H 88.9862163265843 126.93348482142594 34.36258056976449 H 0.0 **** 0.06
28025 H 90.01309459686763 125.60158225094276 34.94594909867513 H 0.0 **** 0.06
28026 C 123.8305887684873 21.88170651512715 124.32757664225021 C 0.0 **** -0.24
28027 H 124.4615484569137 22.691074635516884 124.6942966481927 H 0.0 **** 0.06
28028 H 123.40595700735258 22.162069261099987 123.3629408858898 H 0.0 **** 0.06
28029 H 123.02606195569024 21.696949633793054 125.0383317943828 H 0.0 **** 0.06
28030 H 124.42954110782387 20.97834739801374 124.21305651312282 H 0.0 **** 0.06
28031 C 36.192289805871354 83.34651967747668 111.16100477201417 C 0.0 **** -0.24
28032 H 35.84461695694101 83.8066605688264 112.08513589754924 H 0.0 **** 0.06
28033 H 36.96880939222611 82.61582721300668 111.38896390514711 H 0.0 **** 0.06
28034 H 36.597075220980734 84.11392898405603 110.50229989662435 H 0.0 **** 0.06
28035 H 35.357887653449914 82.84735210563272 110.6678878705863 H 0.0 **** 0.06
28036 C 98.83842496993924 108.89457932608921 14.698390250399399 C 0.0 **** -0.24
28037 H 99.30281428677154 108.00994535578258 15.13367033071421 H 0.0 **** 0.06
28038 H 98.98971596579051 108.88890355880368 13.618196109730292 H 0.0 **** 0.06
28039 H 99.29015686230503 109.78981308252484 15.123979496160473 H 0.0 **** 0.06
28040 H 97.76992540100588 108.88774128592998 14.915676765277325 H 0.0 **** 0.06
28041 C 64.14931986210453 120.79319851686323 46.16046245513303 C 0.0 **** -0.24
28042 H 63.636435545051796 120.09570645931342 46.82177169291606 H 0.0 **** 0.06
28043 H 65.17779901439476 120.92455417769088 46.49854064352928 H 0.0 **** 0.06
28044 H 63.63515245169813 121.7542018985941 46.17806500583714 H 0.0 **** 0.06
28045 H 64.14838494161751 120.39868820092597 45.14474932536001 H 0.0 **** 0.06
28046 C 28.15410916287594 36.812402123988534 5.891759009562975 C 0.0 **** -0.24
28047 H 28.25117198321579 35.72681668871542 5.891030359698448 H 0.0 **** 0.06
28048 H 27.100544573807795 37.08224194917583 5.960348821263665 H 0.0 **** 0.06
28049 H 28.574369854511424 37.21495666285589 4.970154289745494 H 0.0 **** 0.06
28050 H 28.691945710462157 37.223546288941385 6.746627332514095 H 0.0 **** 0.06
28051 C 39.084582571620686 58.5064593277023 37.281626571856094 C 0.0 **** -0.24
28052 H 39.19097960533241 59.256583736004686 38.065644776932714 H 0.0 **** 0.06
28053 H 38.76225113440313 58.99001866018048 36.358386950804146 H 0.0 **** 0.06
28054 H 38.34311738655806 57.76758828806342 37.58303882930568 H 0.0 **** 0.06
28055 H 40.04338495050068 58.01485992478119 37.118128949154226 H 0.0 **** 0.06
28056 C 110.14725552324389 63.83975084046028 67.13314998382617 C 0.0 **** -0.24
28057 H 110.29883814185503 64.7010795259418 67.78456009760123 H 0.0 **** 0.06
28058 H 109.14004375345115 63.44838723330088 67.2760466075897 H 0.0 **** 0.06
28059 H 110.87619015975116 63.06746532983141 67.37871841391535 H 0.0 **** 0.06
28060 H 110.27628988871436 64.14454338131333 66.09482870193267 H 0.0 **** 0.06
28061 C 34.356956395812205 49.97126848732074 104.91448442670841 C 0.0 **** -0.24
28062 H 34.68492990951137 50.47305635146451 105.82499680964162 H 0.0 **** 0.06
28063 H 34.21209079761846 48.909577770689665 105.11687095791663 H 0.0 **** 0.06
28064 H 35.11323029344629 50.09455529570127 104.1397802378001 H 0.0 **** 0.06
28065 H 33.41695761578026 50.40850515834933 104.57778447300484 H 0.0 **** 0.06
28066 C 18.550889185684298 87.52617691403213 89.00904139482014 C 0.0 **** -0.24
28067 H 18.84780435282312 86.65924053627026 88.41915738283461 H 0.0 **** 0.06
28068 H 17.53345418973828 87.38516236743719 89.37363485319582 H 0.0 **** 0.06
28069 H 18.593886350203093 88.42020930987896 88.38675705127196 H 0.0 **** 0.06
28070 H 19.228545822306387 87.63902144011823 89.85441881481063 H 0.0 **** 0.06
28071 C 115.00610092780241 33.906055514277796 32.218975344226806 C 0.0 **** -0.24
28072 H 115.56677844255023 33.254460015616985 31.54859745552548 H 0.0 **** 0.06
28073 H 114.53971855664977 34.705216078675065 31.642283587996417 H 0.0 **** 0.06
28074 H 115.68360996294962 34.33635846652206 32.95664692388692 H 0.0 **** 0.06
28075 H 114.23546375352501 33.327106419830855 32.727688178077216 H 0.0 **** 0.06
28076 C 9.651066242364763 73.07280409501674 116.23060857650107 C 0.0 **** -0.24
28077 H 10.132522869198482 72.6700497524609 117.12248076517636 H 0.0 **** 0.06
28078 H 9.13638558815019 72.26937124317078 115.70282358785609 H 0.0 **** 0.06
28079 H 10.405176846515658 73.5126502874747 115.57873747242772 H 0.0 **** 0.06
28080 H 8.930573973731342 73.83814141436224 116.52168456403699 H 0.0 **** 0.06
28081 C 98.96283302025097 112.643828136985 100.94481087781932 C 0.0 **** -0.24
28082 H 99.44437955432322 113.32334281017019 101.64844448209664 H 0.0 **** 0.06
28083 H 99.45373201296718 112.71883007306592 99.97458185859918 H 0.0 **** 0.06
28084 H 97.91130584138028 112.91310224369788 100.84186158375334 H 0.0 **** 0.06
28085 H 99.04212969736949 111.62143348680793 101.31428575554003 H 0.0 **** 0.06
28086 C 57.1954332400951 122.54220637866052 60.12838697404689 C 0.0 **** -0.24
28087 H 58.02090245867939 122.81336989984415 59.47100860039858 H 0.0 **** 0.06
28088 H 57.489334514047954 122.70127597681032 61.165875466312016 H 0.0 **** 0.06
28089 H 56.94183958183973 121.49176480186904 59.97907412189653 H 0.0 **** 0.06
28090 H 56.32859794145841 123.16112443351834 59.89712636949099 H 0.0 **** 0.06
28091 C 37.0480057190856 84.08343320796823 65.62702651881203 C 0.0 **** -0.24
28092 H 36.497873987288045 83.78371214555003 66.5190796784163 H 0.0 **** 0.06
28093 H 36.34429751113063 84.36839208053495 64.84538681438923 H 0.0 **** 0.06
28094 H 37.659010173542185 83.25011124751344 65.28103446586678 H 0.0 **** 0.06
28095 H 37.691504154728314 84.93028173883992 65.86543960082207 H 0.0 **** 0.06
28096 C 42.723482127968225 98.79639896609784 67.86809744307732 C 0.0 **** -0.24
28097 H 43.747287239062246 99.03126198867824 67.5747938539738 H 0.0 **** 0.06
28098 H 42.08616543247223 99.66168940219823 67.68416431479878 H 0.0 **** 0.06
28099 H 42.69833470232328 98.54438224327158 68.92751735947442 H 0.0 **** 0.06
28100 H 42.36413956079571 97.94934641193838 67.28423159613808 H 0.0 **** 0.06
28101 C 65.94354243482549 125.6451231796045 3.2161698065003144 C 0.0 **** -0.24
28102 H 66.35858982517217 125.82504052695718 2.2248086997403114 H 0.0 **** 0.06
28103 H 66.31508099574448 124.69516612733193 3.5990328459650556 H 0.0 **** 0.06
28104 H 64.85542326214342 125.61089524602377 3.1530140972010656 H 0.0 **** 0.06
28105 H 66.24341724969246 126.44986738391798 3.88681224905476 H 0.0 **** 0.06
28106 C 117.32741152418637 119.63164165526736 33.214974464645735 C 0.0 **** -0.24
28107 H 117.81379451075267 118.66625121927729 33.355175647877914 H 0.0 **** 0.06
28108 H 116.96411589986579 119.70914056654884 32.19020001114475 H 0.0 **** 0.06
28109 H 118.04411232211439 120.43064192193366 33.40813264015816 H 0.0 **** 0.06
28110 H 116.4891097040989 119.72040498321924 33.90550944867802 H 0.0 **** 0.06
28111 C 79.16337727208808 122.85152425538038 73.31382340376446 C 0.0 **** -0.24
28112 H 78.66252392433645 121.92453339488618 73.59375261263723 H 0.0 **** 0.06
28113 H 79.95136636163991 123.06946993374757 74.03435745387564 H 0.0 **** 0.06
28114 H 78.44092366122388 123.66703764601402 73.30613567334424 H 0.0 **** 0.06
28115 H 79.59901776632421 122.7423215351401 72.32040072284539 H 0.0 **** 0.06
28116 C 19.120643132329747 47.85245535291743 71.948771903904 C 0.0 **** -0.24
28117 H 18.182867727460433 48.403818141145095 72.01445915583317 H 0.0 **** 0.06
28118 H 19.48304417998054 47.62938527110406 72.95263680026581 H 0.0 **** 0.06
28119 H 19.85936259965891 48.45392523313098 71.42024761009141 H 0.0 **** 0.06
28120 H 18.956646738212214 46.92050458036653 71.40685635172714 H 0.0 **** 0.06
28121 C 73.43181366559877 104.70589252327444 120.01167714360042 C 0.0 **** -0.24
28122 H 73.01373823882132 104.70005714608088 119.00527000346528 H 0.0 **** 0.06
28123 H 73.1532359338294 105.63248245731226 120.51433811538521 H 0.0 **** 0.06
28124 H 74.51822300077018 104.63631618568989 119.95367385868951 H 0.0 **** 0.06
28125 H 73.04226243028526 103.85685348229846 120.57225090514015 H 0.0 **** 0.06
28126 C 68.6303084924084 33.00069335747935 4.177491026609342 C 0.0 **** -0.24
28127 H 68.31709553368842 33.15882456990457 5.2093227057152305 H 0.0 **** 0.06
28128 H 69.63136924148438 33.410501340366835 4.034472151275732 H 0.0 **** 0.06
28129 H 67.93336739111689 33.50258523065972 3.5059717459909834 H 0.0 **** 0.06
28130 H 68.63993362476648 31.933243719053564 3.9599823465277346 H 0.0 **** 0.06
28131 C 61.65639803757905 123.82637258779954 17.67038204067393 C 0.0 **** -0.24
28132 H 62.68973241135474 124.17098064412264 17.638479088310902 H 0.0 **** 0.06
28133 H 61.52428370521562 123.00652793570328 16.964047104556926 H 0.0 **** 0.06
28134 H 60.990270502363074 124.64739736364811 17.404590931900884 H 0.0 **** 0.06
28135 H 61.42056133579571 123.47927026719103 18.6773639725738 H 0.0 **** 0.06
28136 C 15.20135848247661 2.8846222492903166 58.005732620178776 C 0.0 **** -0.24
28137 H 15.814449363891686 3.5263480019846156 57.372764917668334 H 0.0 **** 0.06
28138 H 14.367843652070437 3.4619903977325635 58.40717449999903 H 0.0 **** 0.06
28139 H 15.806009861148212 2.5000143612449506 58.826252503151636 H 0.0 **** 0.06
28140 H 14.816963425122115 2.0526255691263486 57.415406054686315 H 0.0 **** 0.06
28141 C 35.61752139814723 9.59894230123534 97.14669327464664 C 0.0 **** -0.24
28142 H 35.47798771635337 10.606598157000377 97.5397525152498 H 0.0 **** 0.06
28143 H 36.62450421777362 9.253702555775405 97.38291909757217 H 0.0 **** 0.06
28144 H 35.480527098540165 9.608371047515732 96.06579916367575 H 0.0 **** 0.06
28145 H 34.88766669930067 8.928392780120333 97.59970309421259 H 0.0 **** 0.06
28146 C 29.20024951675839 106.42089353503913 84.19303080437774 C 0.0 **** -0.24
28147 H 28.43600217323325 107.12722003007603 84.51827592195698 H 0.0 **** 0.06
28148 H 30.164430994129674 106.926109069989 84.14670854367658 H 0.0 **** 0.06
28149 H 28.942387548786982 106.03650244934188 83.206682937733 H 0.0 **** 0.06
28150 H 29.25609926139404 105.59470169024763 84.90211777678506 H 0.0 **** 0.06
28151 C 59.94892669077748 38.70965720784947 0.6187282561230916 C 0.0 **** -0.24
28152 H 60.127072346210994 37.75640502935622 1.115938326031653 H 0.0 **** 0.06
28153 H 59.733670041640934 39.473651651872714 1.365447418017368 H 0.0 **** 0.06
28154 H 59.0997462822788 38.612989765727086 -0.05860074221791933 H 0.0 **** 0.06
28155 H 60.83515844224297 38.99461780505939 0.051870953889192606 H 0.0 **** 0.06
28156 C 120.20405937160234 30.046483065060016 129.97008250977657 C 0.0 **** -0.24
28157 H 120.3547989265306 29.102625972306413 130.49413102948822 H 0.0 **** 0.06
28158 H 120.20326158781913 29.867797961741417 128.89395492809274 H 0.0 **** 0.06
28159 H 121.00873633226175 30.73627926437669 130.2237902925661 H 0.0 **** 0.06
28160 H 119.24755894456186 30.477923627347423 130.2675846516954 H 0.0 **** 0.06
28161 C 49.25655528242581 28.43332702503045 14.795812364868027 C 0.0 **** -0.24
28162 H 48.87721110243464 27.786099603454147 14.004983600950311 H 0.0 **** 0.06
28163 H 48.478651156882705 29.13757789638123 15.091954882233665 H 0.0 **** 0.06
28164 H 50.12483971956041 28.981409087081374 14.431492999859017 H 0.0 **** 0.06
28165 H 49.54423309824247 27.82714978897951 15.65437340496618 H 0.0 **** 0.06
28166 C 29.419183570114626 98.21845104364715 7.340713459517815 C 0.0 **** -0.24
28167 H 28.73954381601908 98.0133372836082 8.168049932887499 H 0.0 **** 0.06
28168 H 29.019554214527204 97.77949982309391 6.425819614816874 H 0.0 **** 0.06
28169 H 30.39542913709056 97.7841800733722 7.556268063817498 H 0.0 **** 0.06
28170 H 29.520263424599136 99.29590014577937 7.213376419824101 H 0.0 **** 0.06
28171 C 37.001439376829694 64.9325228788612 0.27997481613201103 C 0.0 **** -0.24
28172 H 36.64386369055114 64.4934702072487 -0.6504077640736057 H 0.0 **** 0.06
28173 H 36.7608787896738 65.99562002606721 0.2957716481802777 H 0.0 **** 0.06
28174 H 38.08116285730982 64.80204867866611 0.35261198591885545 H 0.0 **** 0.06
28175 H 36.519218385058025 64.43791029895668 1.1240476011617773 H 0.0 **** 0.06
28176 C 51.384937518148675 69.43054134335549 116.36066179080042 C 0.0 **** -0.24
28177 H 50.720080555075754 69.74609693869786 115.55606598923342 H 0.0 **** 0.06
28178 H 52.41134806354407 69.69924132997255 116.11031963453989 H 0.0 **** 0.06
28179 H 51.31230123436066 68.35099847530829 116.48914753064099 H 0.0 **** 0.06
28180 H 51.09497117059583 69.9271748509498 117.28681845564508 H 0.0 **** 0.06
28181 C 58.46246097453681 87.08498051231714 68.9169207805273 C 0.0 **** -0.24
28182 H 57.51989907002283 86.79786821707128 68.45073620300806 H 0.0 **** 0.06
28183 H 58.26257043353024 87.55532433711052 69.87989738989114 H 0.0 **** 0.06
28184 H 58.987919191817724 87.78837072082396 68.27106991563178 H 0.0 **** 0.06
28185 H 59.07850520371247 86.19867103795507 69.06597260545053 H 0.0 **** 0.06
28186 C 101.46008019463123 50.25959532947263 35.28679512483279 C 0.0 **** -0.24
28187 H 100.94236172999805 51.20941371520212 35.15788033650858 H 0.0 **** 0.06
28188 H 100.9355810269645 49.65673425619778 36.02728857532642 H 0.0 **** 0.06
28189 H 102.47984286882264 50.445741926968395 35.624736006632276 H 0.0 **** 0.06
28190 H 101.48400974693926 49.72751770988634 34.33561045752597 H 0.0 **** 0.06
28191 C 15.890436434223432 54.86180492525921 124.30146248912489 C 0.0 **** -0.24
28192 H 16.32030239616944 54.68270065436192 125.28736330925551 H 0.0 **** 0.06
28193 H 16.426428495737525 55.67736493036169 123.81375050441834 H 0.0 **** 0.06
28194 H 14.839013780529484 55.12885526435251 124.4060089802474 H 0.0 **** 0.06
28195 H 15.976936275223466 53.958286320587135 123.69726929028107 H 0.0 **** 0.06
28196 C 127.84685931241373 105.35896829152308 52.491287764811645 C 0.0 **** -0.24
28197 H 128.12591250321455 104.6385653590838 53.26007537471857 H 0.0 **** 0.06
28198 H 127.45622261579337 104.82978797832358 51.62198422228147 H 0.0 **** 0.06
28199 H 128.72457479985124 105.9364365149707 52.20081668076878 H 0.0 **** 0.06
28200 H 127.08367825433447 106.03108361765308 52.88281566382875 H 0.0 **** 0.06
28201 C 118.87048632921734 97.77385954251801 62.075823243934224 C 0.0 **** -0.24
28202 H 119.72274725045762 97.28269826530077 62.547442262213906 H 0.0 **** 0.06
28203 H 117.947154737099 97.30522598136277 62.41690072461353 H 0.0 **** 0.06
28204 H 118.94993434474621 97.67778551616641 60.993611995246454 H 0.0 **** 0.06
28205 H 118.86517006405595 98.82922033456029 62.34839948309548 H 0.0 **** 0.06
28206 C 111.17982022105116 85.28045480100577 75.76534844087453 C 0.0 **** -0.24
28207 H 111.07671307962784 84.33875498530873 76.30436776967986 H 0.0 **** 0.06
28208 H 111.86194467362094 85.9358385630817 76.30777159485079 H 0.0 **** 0.06
28209 H 110.2048346724074 85.76015726659263 75.68236551586543 H 0.0 **** 0.06
28210 H 111.57672569632444 85.08701728768699 74.76915147226029 H 0.0 **** 0.06
28211 C 8.347936709319185 113.4510912989473 113.42826641844164 C 0.0 **** -0.24
28212 H 9.064530029967472 113.18730093688806 112.64938759657588 H 0.0 **** 0.06
28213 H 8.188031465953458 112.59187588433828 114.07968460799003 H 0.0 **** 0.06
28214 H 7.402936922278855 113.7399392820853 112.96846352356431 H 0.0 **** 0.06
28215 H 8.737857370733451 114.28380171096667 114.01247754582369 H 0.0 **** 0.06
28216 C 99.84673144526508 84.33988849296509 2.4090026671465807 C 0.0 **** -0.24
28217 H 99.35145829375392 83.64327842500556 1.7327871889660855 H 0.0 **** 0.06
28218 H 100.90968879983438 84.10114986918748 2.460868680419395 H 0.0 **** 0.06
28219 H 99.4065109884178 84.25759036451909 3.402729206327791 H 0.0 **** 0.06
28220 H 99.72015326352533 85.3575734776121 2.0385235806502635 H 0.0 **** 0.06
28221 C 127.04364901233927 103.880849430018 61.38500804029729 C 0.0 **** -0.24
28222 H 127.49806529946923 103.14036979004604 62.043527766661896 H 0.0 **** 0.06
28223 H 127.19356937324139 104.87758843132346 61.80096448953444 H 0.0 **** 0.06
28224 H 125.97582937858428 103.68038342162936 61.29695076798288 H 0.0 **** 0.06
28225 H 127.5069616631495 103.8243032053511 60.40068781514918 H 0.0 **** 0.06
28226 C 0.33229865180072693 118.8585037347247 16.195138751431916 C 0.0 **** -0.24
28227 H -0.4147178907986131 119.34060114169574 16.826438913529664 H 0.0 **** 0.06
28228 H -0.07858588296818425 117.93372779133185 15.788174489848945 H 0.0 **** 0.06
28229 H 1.2176939654408443 118.63206803870227 16.78925531214925 H 0.0 **** 0.06
28230 H 0.6035483958781924 119.52649190897495 15.378154175524664 H 0.0 **** 0.06
28231 C 108.17335559341348 78.938354808636 90.37080174601631 C 0.0 **** -0.24
28232 H 107.23398273534517 78.46559307964475 90.08574315667191 H 0.0 **** 0.06
28233 H 108.32514836664872 79.83533786441416 89.77085442270938 H 0.0 **** 0.06
28234 H 108.99612930210269 78.24354357345396 90.2006157481907 H 0.0 **** 0.06
28235 H 108.13900989057932 79.2084525557483 91.42619079391042 H 0.0 **** 0.06
28236 C 66.14048828174589 104.92849381077396 25.719621134958487 C 0.0 **** -0.24
28237 H 67.20225990878083 104.68585155463116 25.67242751998431 H 0.0 **** 0.06
28238 H 65.88621952609685 105.60481795079812 24.903916844094667 H 0.0 **** 0.06
28239 H 65.92059723567183 105.40982775375518 26.6723577263855 H 0.0 **** 0.06
28240 H 65.55482364156967 104.01384202186436 25.630058438887545 H 0.0 **** 0.06
28241 C 101.86469928834757 7.439734859017914 27.15251779865696 C 0.0 **** -0.24
28242 H 102.00724489163913 6.883852043882538 28.078873821226637 H 0.0 **** 0.06
28243 H 102.4432133301625 6.971771270421584 26.354960812689285 H 0.0 **** 0.06
28244 H 102.20177551502397 8.467420328144673 27.28976826746964 H 0.0 **** 0.06
28245 H 100.80785349077587 7.436426309815332 26.886235113058376 H 0.0 **** 0.06
28246 C 122.16745741996293 4.80376823399007 76.4690048573037 C 0.0 **** -0.24
28247 H 122.30481661185468 5.781770239583523 76.00680895919066 H 0.0 **** 0.06
28248 H 122.04516921900608 4.04906528350449 75.69175808030532 H 0.0 **** 0.06
28249 H 121.2800456594494 4.822787210910121 77.10066461199872 H 0.0 **** 0.06
28250 H 123.04112588735191 4.562844800940411 77.07527362848342 H 0.0 **** 0.06
28251 C 52.04954891906823 84.30738066671958 128.11798583111013 C 0.0 **** -0.24
28252 H 51.108651232873456 84.32026536001338 128.6682821225766 H 0.0 **** 0.06
28253 H 52.86198313090938 84.04273675167612 128.79407285780889 H 0.0 **** 0.06
28254 H 52.23468205675351 85.29397067131106 127.6933279142823 H 0.0 **** 0.06
28255 H 51.989328545679825 83.57196823025905 127.3152333365689 H 0.0 **** 0.06
28256 C 112.13858522254291 72.53196398348094 103.39807291741312 C 0.0 **** -0.24
28257 H 111.11568818446634 72.47038507832046 103.76897065762485 H 0.0 **** 0.06
28258 H 112.15453849678823 72.28475346819714 102.33663619345953 H 0.0 **** 0.06
28259 H 112.7655197856307 71.8283770081955 103.94572872739454 H 0.0 **** 0.06
28260 H 112.51651584564588 73.54493323920265 103.54210863953176 H 0.0 **** 0.06
28261 C 86.18642143170027 41.36255053519787 94.11425227144676 C 0.0 **** -0.24
28262 H 85.39576053468059 41.91325918396372 93.60497849246568 H 0.0 **** 0.06
28263 H 86.66543560499557 40.68122485871055 93.41100464765375 H 0.0 **** 0.06
28264 H 85.75811767386216 40.79147595528218 94.93783175814838 H 0.0 **** 0.06
28265 H 86.92457528896671 42.062936968543596 94.50345675361544 H 0.0 **** 0.06
28266 C 0.9008059773622961 52.27242462153157 29.116361784239118 C 0.0 **** -0.24
28267 H 0.9706538539962821 51.520032483406354 29.90160110105301 H 0.0 **** 0.06
28268 H 0.24021279823935515 53.076842890034726 29.4418712999733 H 0.0 **** 0.06
28269 H 0.5001447293613239 51.816727675872585 28.2114318030089 H 0.0 **** 0.06
28270 H 1.8919772214291584 52.676758307791445 28.911253769682872 H 0.0 **** 0.06
28271 C 61.735583999635395 26.841401412913854 42.648993617391966 C 0.0 **** -0.24
28272 H 62.01482013500089 27.716739215594657 43.23670397540809 H 0.0 **** 0.06
28273 H 60.6984611552717 26.93676788754027 42.32549094055196 H 0.0 **** 0.06
28274 H 61.8463729197352 25.945105872616864 43.257965289758715 H 0.0 **** 0.06
28275 H 62.384060091303766 26.770460260817458 41.775536919968886 H 0.0 **** 0.06
28276 C 47.86974256790384 116.18666814433104 109.05648141664045 C 0.0 **** -0.24
28277 H 47.28092586921804 115.90457744866336 108.18367719892626 H 0.0 **** 0.06
28278 H 48.90769096992938 115.88983092312924 108.90426027003224 H 0.0 **** 0.06
28279 H 47.47433283690668 115.68466407293181 109.93993122725414 H 0.0 **** 0.06
28280 H 47.81712967963364 117.26578658514453 109.19736324281342 H 0.0 **** 0.06
28281 C 110.72861379645833 96.59445019541101 93.04958419279346 C 0.0 **** -0.24
28282 H 110.47467406806803 97.13823369548231 93.95996193734645 H 0.0 **** 0.06
28283 H 110.51401086609263 95.53523401559704 93.18737415439512 H 0.0 **** 0.06
28284 H 111.78902065678275 96.72646090521994 92.8323700428448 H 0.0 **** 0.06
28285 H 110.13680298437245 96.98100988406225 92.21902105982676 H 0.0 **** 0.06
28286 C 13.524799076382948 1.8850238737879295 21.472420108875298 C 0.0 **** -0.24
28287 H 14.34659619383828 1.5197483006974153 22.088643076441343 H 0.0 **** 0.06
28288 H 13.920751303065202 2.5170569075781373 20.676840691779176 H 0.0 **** 0.06
28289 H 12.837583055070127 2.4645458875189092 22.089093330126474 H 0.0 **** 0.06
28290 H 12.994265753558182 1.0387443993573129 21.035103337154254 H 0.0 **** 0.06
28291 C 116.29641260304038 89.05488386313024 76.60160782997946 C 0.0 **** -0.24
28292 H 117.16397380653547 88.49602794828874 76.95273473552643 H 0.0 **** 0.06
28293 H 115.90689945401215 89.66938148536005 77.41388100160039 H 0.0 **** 0.06
28294 H 115.52542469600837 88.3588718815844 76.27152386782998 H 0.0 **** 0.06
28295 H 116.58963433154125 89.69462149811625 75.76952477032647 H 0.0 **** 0.06
28296 C 87.47444204057005 58.16279904957699 56.36078039863487 C 0.0 **** -0.24
28297 H 88.35423949265858 58.74670879167806 56.63206319060666 H 0.0 **** 0.06
28298 H 87.19246167191243 57.522550106223974 57.1966612713271 H 0.0 **** 0.06
28299 H 87.70202118029543 57.54514493331396 55.49146075201578 H 0.0 **** 0.06
28300 H 86.6511172923881 58.83596552099888 56.12309637032567 H 0.0 **** 0.06
28301 C 68.55818411528296 58.76730313804093 51.53476366972457 C 0.0 **** -0.24
28302 H 69.10934229067672 58.764249129592585 52.47559726602921 H 0.0 **** 0.06
28303 H 68.0939451161494 57.792924061867 51.38213325238395 H 0.0 **** 0.06
28304 H 69.24335586668445 58.97644020093557 50.71331505745148 H 0.0 **** 0.06
28305 H 67.78676627193036 59.536765859482145 51.568440242441426 H 0.0 **** 0.06
28306 C 44.26335493489151 31.060256995837562 88.26399178829573 C 0.0 **** -0.24
28307 H 44.55313653966914 32.0579781776172 88.59331764814884 H 0.0 **** 0.06
28308 H 43.850031420616574 30.50622044826605 89.10703963370702 H 0.0 **** 0.06
28309 H 45.13876188178406 30.5371241246188 87.87874360350816 H 0.0 **** 0.06
28310 H 43.512504005135355 31.14139788660043 87.47791830808328 H 0.0 **** 0.06
28311 C 57.55963354982174 32.83446141216879 80.17233614785727 C 0.0 **** -0.24
28312 H 56.647235189349715 32.37801200601851 79.78948552254263 H 0.0 **** 0.06
28313 H 58.38362528177862 32.12611367593743 80.0863269583684 H 0.0 **** 0.06
28314 H 57.41932578484227 33.10456943384327 81.21906575368436 H 0.0 **** 0.06
28315 H 57.788023262482454 33.72927949252144 79.59309593220438 H 0.0 **** 0.06
28316 C 69.57344509829278 47.2233930336875 105.99997278044111 C 0.0 **** -0.24
28317 H 69.45457563380535 47.99659892863593 105.24034509865402 H 0.0 **** 0.06
28318 H 68.79371395179396 47.33329962285978 106.75469222348653 H 0.0 **** 0.06
28319 H 70.55097174302722 47.32474884135371 106.47036631008564 H 0.0 **** 0.06
28320 H 69.49242174411228 46.24167050392231 105.53473790781715 H 0.0 **** 0.06
28321 C 60.0411238086005 7.329423434395331 2.658143683955501 C 0.0 **** -0.24
28322 H 59.9336083678686 6.301293764703718 3.005103813787656 H 0.0 **** 0.06
28323 H 59.434593457265976 7.986953381184378 3.28094603776907 H 0.0 **** 0.06
28324 H 59.70706326162093 7.399645924343346 1.6219555057676303 H 0.0 **** 0.06
28325 H 61.08692224232391 7.628569827200181 2.723492785193571 H 0.0 **** 0.06
28326 C 3.3336213002643547 57.3337408459696 75.15896705002257 C 0.0 **** -0.24
28327 H 2.768599614346897 57.67356977152116 76.02741124032272 H 0.0 **** 0.06
28328 H 2.6863815225880217 57.33791410186902 74.28095804050436 H 0.0 **** 0.06
28329 H 3.699524323142896 56.32278906843794 75.33624341080314 H 0.0 **** 0.06
28330 H 4.177943717887075 58.00177197402718 74.99042771969185 H 0.0 **** 0.06
28331 C 78.86402940027709 34.37911684233865 62.54176900032638 C 0.0 **** -0.24
28332 H 79.3597897781731 33.63272270301579 63.16257244429784 H 0.0 **** 0.06
28333 H 79.51483016524784 35.24622961123876 62.428171937286436 H 0.0 **** 0.06
28334 H 77.93108109633981 34.683182504992075 63.015178908347366 H 0.0 **** 0.06
28335 H 78.65206764512088 33.95282452570518 61.5611607437927 H 0.0 **** 0.06
28336 C 16.808810364522458 126.97971946736624 128.6702658686103 C 0.0 **** -0.24
28337 H 17.36633484870012 127.22268134881875 127.76619983516385 H 0.0 **** 0.06
28338 H 17.125926897597793 126.00584055230627 129.04222203679691 H 0.0 **** 0.06
28339 H 15.74239894961093 126.95268638412978 128.4423130702978 H 0.0 **** 0.06
28340 H 16.99789446133545 127.73912999831589 129.42904338867032 H 0.0 **** 0.06
28341 C 26.67764057620377 51.56699660100564 23.350049644167044 C 0.0 **** -0.24
28342 H 27.707138038808807 51.31505162638561 23.601318589695254 H 0.0 **** 0.06
28343 H 26.371562636332555 52.44927065857877 23.912163733588898 H 0.0 **** 0.06
28344 H 26.026858326388435 50.73048419829351 23.60416166394201 H 0.0 **** 0.06
28345 H 26.603970897051 51.772566630120465 22.28180751257095 H 0.0 **** 0.06
28346 C 126.49859684877633 124.31138604800327 95.01850593419246 C 0.0 **** -0.24
28347 H 127.55903645931213 124.28084260954589 95.26549441368834 H 0.0 **** 0.06
28348 H 126.21241267252672 123.38004255614032 94.53065109673382 H 0.0 **** 0.06
28349 H 126.30497335913222 125.14827702869368 94.34676345602975 H 0.0 **** 0.06
28350 H 125.91601321258146 124.43689324047529 95.9320790371818 H 0.0 **** 0.06
28351 C 81.35707208549613 16.87533871618237 67.3428465586864 C 0.0 **** -0.24
28352 H 81.86247296246992 17.80044580119003 67.06613680325285 H 0.0 **** 0.06
28353 H 80.51587143237431 16.70535810121931 66.67107538945749 H 0.0 **** 0.06
28354 H 80.99363017992874 16.95301028017124 68.36812586074137 H 0.0 **** 0.06
28355 H 82.05638174137911 16.04261964159675 67.26777714421024 H 0.0 **** 0.06
28356 C 9.128677696750827 86.38685007335741 104.64664937955183 C 0.0 **** -0.24
28357 H 8.091310785415487 86.36382465862971 104.3133954677823 H 0.0 **** 0.06
28358 H 9.216517270692663 87.03865906539241 105.51620889475731 H 0.0 **** 0.06
28359 H 9.759187146546566 86.7662521458046 103.84280154195659 H 0.0 **** 0.06
28360 H 9.447374518627726 85.37953044183197 104.91312061365124 H 0.0 **** 0.06
28361 C 107.61753824885375 60.21567976177997 51.88543170657718 C 0.0 **** -0.24
28362 H 108.67958122035637 60.12173973438598 52.11082788540281 H 0.0 **** 0.06
28363 H 107.22381968452407 61.11333831800448 52.36169975307767 H 0.0 **** 0.06
28364 H 107.08703271845303 59.34116780567555 52.2617682256833 H 0.0 **** 0.06
28365 H 107.48043317065793 60.286967481385034 50.80631459366519 H 0.0 **** 0.06
28366 C 6.13735081396328 98.54619297005647 63.75329502028427 C 0.0 **** -0.24
28367 H 6.830745967808241 97.71855122573739 63.90137524071676 H 0.0 **** 0.06
28368 H 6.065882343830253 98.77351597544516 62.68960663310172 H 0.0 **** 0.06
28369 H 6.49975036983875 99.42291427027888 64.28860586959746 H 0.0 **** 0.06
28370 H 5.154140551103524 98.26816840967277 64.13324028845382 H 0.0 **** 0.06
28371 C 117.86523996897662 103.65115406081682 3.3761310659438095 C 0.0 **** -0.24
28372 H 117.48272208534172 104.57680303316266 2.947604002112314 H 0.0 **** 0.06
28373 H 118.27909328713324 103.02779776311414 2.583244661735506 H 0.0 **** 0.06
28374 H 117.05339539894075 103.11840462153748 3.870975365606938 H 0.0 **** 0.06
28375 H 118.64489629039505 103.88171868272588 4.102189224657366 H 0.0 **** 0.06
28376 C 96.15516274689206 42.000798547091705 105.75060122638007 C 0.0 **** -0.24
28377 H 95.69224889395029 41.12056391899128 106.19750868270376 H 0.0 **** 0.06
28378 H 96.80859762637009 42.47881041212128 106.48106891091015 H 0.0 **** 0.06
28379 H 95.3798339958284 42.701462441171685 105.4426875431704 H 0.0 **** 0.06
28380 H 96.74053884597717 41.700214903910236 104.88084502868116 H 0.0 **** 0.06
28381 C 74.23431606812971 25.77603367155399 9.001608687523728 C 0.0 **** -0.24
28382 H 74.46979550274594 26.8407080337592 9.003176276086247 H 0.0 **** 0.06
28383 H 75.08929181110057 25.214537026840787 9.377810028624744 H 0.0 **** 0.06
28384 H 74.0066464699446 25.45624589813758 7.984259750678419 H 0.0 **** 0.06
28385 H 73.37028531245434 25.595546596231316 9.641035565539504 H 0.0 **** 0.06
28386 C 71.14323799968543 59.57119433149242 76.3247740652481 C 0.0 **** -0.24
28387 H 71.08392987071306 60.61149524708753 76.00236421830698 H 0.0 **** 0.06
28388 H 71.83542502454105 59.48929947829801 77.16174463056934 H 0.0 **** 0.06
28389 H 71.49757323435892 58.954619875765445 75.49796996515956 H 0.0 **** 0.06
28390 H 70.15528389477151 59.23087121181213 76.63415781054894 H 0.0 **** 0.06
28391 C 15.78897805069056 78.01623320453108 33.023834630224144 C 0.0 **** -0.24
28392 H 16.56128536799622 78.29389537856714 32.306310685822694 H 0.0 **** 0.06
28393 H 15.64657548764103 76.93519401298589 33.003652588885075 H 0.0 **** 0.06
28394 H 14.85370030227142 78.5110264786936 32.75999627281615 H 0.0 **** 0.06
28395 H 16.09421918456559 78.32499084145834 34.02398165959798 H 0.0 **** 0.06
28396 C 45.44906234943902 8.991148986386573 85.66323272316663 C 0.0 **** -0.24
28397 H 45.50837780195262 8.490923313168182 84.6956225074722 H 0.0 **** 0.06
28398 H 44.83859064450775 9.889859205397418 85.57096814582479 H 0.0 **** 0.06
28399 H 46.452172416238454 9.26431243612588 85.99170864189233 H 0.0 **** 0.06
28400 H 44.998146659718174 8.317928980429421 86.3922967347504 H 0.0 **** 0.06
28401 C 124.09204963116952 118.98662948568958 103.48319668492313 C 0.0 **** -0.24
28402 H 124.55925532933841 119.24539415396438 102.53375312561596 H 0.0 **** 0.06
28403 H 124.12179922826778 117.90518421053727 103.61966133217801 H 0.0 **** 0.06
28404 H 123.05591412799043 119.32428420332506 103.4814786293888 H 0.0 **** 0.06
28405 H 124.63072133001629 119.471225922417 104.29664581399162 H 0.0 **** 0.06
28406 C 48.55796187549308 45.09246326141346 5.437164556577422 C 0.0 **** -0.24
28407 H 48.00834233209048 45.89466419988362 5.929640427666698 H 0.0 **** 0.06
28408 H 48.82013359788485 45.399860613522364 4.4243800911088975 H 0.0 **** 0.06
28409 H 47.93631009841749 44.19745351960509 5.3965301121062375 H 0.0 **** 0.06
28410 H 49.467237694215584 44.87699429400183 5.999200262441384 H 0.0 **** 0.06
28411 C 118.04851512755738 118.08323564892805 18.685919907947834 C 0.0 **** -0.24
28412 H 118.2509833469368 118.58623527376642 17.740760966898932 H 0.0 **** 0.06
28413 H 117.97118268014535 118.82350182938974 19.481553669818823 H 0.0 **** 0.06
28414 H 118.86039153888541 117.39174435978478 18.910588422315442 H 0.0 **** 0.06
28415 H 117.11151177510646 117.53151146217763 18.609777851117116 H 0.0 **** 0.06
28416 C 106.85461590722576 27.59489143700631 130.21983594355203 C 0.0 **** -0.24
28417 H 106.59147948063645 27.40766774450492 131.26088540357776 H 0.0 **** 0.06
28418 H 107.7724977564693 28.180803798102943 130.177657082345 H 0.0 **** 0.06
28419 H 106.04814178708847 28.144566313829102 129.73546063410996 H 0.0 **** 0.06
28420 H 107.0057726349142 26.644467876365866 129.7071925816664 H 0.0 **** 0.06
28421 C 109.94593250799821 77.30495771100864 43.0169107355527 C 0.0 **** -0.24
28422 H 109.65546651264303 76.96255248929722 42.023886759360266 H 0.0 **** 0.06
28423 H 109.62834760692945 76.57406138706723 43.760686826472124 H 0.0 **** 0.06
28424 H 109.47162047364445 78.2641473366677 43.223799135207 H 0.0 **** 0.06
28425 H 111.02963524747807 77.41925701544773 43.05885801781187 H 0.0 **** 0.06
28426 C 77.27784022163664 83.62866949210755 38.347084438635505 C 0.0 **** -0.24
28427 H 76.42917680543209 84.10986414234155 37.86021317797233 H 0.0 **** 0.06
28428 H 78.10503659018684 83.55112230524605 37.64118848545385 H 0.0 **** 0.06
28429 H 76.9881709288062 82.63235665491688 38.679807827253114 H 0.0 **** 0.06
28430 H 77.58725176451313 84.22275757364345 39.20716369981207 H 0.0 **** 0.06
28431 C 37.82116059432794 21.701009220650832 58.82611928091376 C 0.0 **** -0.24
28432 H 37.98616279884439 21.626783944408203 59.900333538154 H 0.0 **** 0.06
28433 H 38.503020253289556 22.438957852684254 58.403784486629675 H 0.0 **** 0.06
28434 H 36.791984227654034 22.007386143584654 58.63690855170306 H 0.0 **** 0.06
28435 H 38.001757109003016 20.730747479542032 58.36330017034936 H 0.0 **** 0.06
28436 C 57.69910009287403 124.45797329229589 53.387508308606584 C 0.0 **** -0.24
28437 H 57.249780952609086 124.60230284671644 54.36932330133564 H 0.0 **** 0.06
28438 H 56.92658847273651 124.17434686203387 52.672197635975266 H 0.0 **** 0.06
28439 H 58.4503324418757 123.67007613275916 53.44373556307053 H 0.0 **** 0.06
28440 H 58.17031900796343 125.38626399078026 53.06413453695495 H 0.0 **** 0.06
28441 C 11.321024804236863 8.428803873323439 30.563420332745032 C 0.0 **** -0.24
28442 H 12.21588870959086 8.360135125063294 29.944696100529434 H 0.0 **** 0.06
28443 H 10.501225889588202 7.899194155315996 30.076829309069765 H 0.0 **** 0.06
28444 H 11.050960256286324 9.476270337442621 30.69460940622232 H 0.0 **** 0.06
28445 H 11.517734412106915 7.979797273139635 31.537339175836742 H 0.0 **** 0.06
28446 C 78.64241623142973 115.85921277593718 87.05960386356111 C 0.0 **** -0.24
28447 H 78.31592640336768 114.82028266835431 87.01429283822995 H 0.0 **** 0.06
28448 H 77.82586980570426 116.48070159980477 87.42739056139169 H 0.0 **** 0.06
28449 H 78.93229301392253 116.19285782441335 86.06279247148485 H 0.0 **** 0.06
28450 H 79.49557570272435 115.94300901117612 87.73393958313787 H 0.0 **** 0.06
28451 C 15.737157907575181 38.39574610945933 5.528916345630261 C 0.0 **** -0.24
28452 H 15.117670171086615 37.57031815877938 5.880700589116234 H 0.0 **** 0.06
28453 H 16.226424406530214 38.11114085651507 4.596681027842159 H 0.0 **** 0.06
28454 H 16.492823070286306 38.62857276589126 6.279696889278664 H 0.0 **** 0.06
28455 H 15.111967242925232 39.27179549124711 5.359359494708318 H 0.0 **** 0.06
28456 C 37.95764528588839 94.33907877559243 38.64087515157265 C 0.0 **** -0.24
28457 H 37.26498032568364 94.96368088567006 39.204132530177745 H 0.0 **** 0.06
28458 H 38.602043080728464 93.79526030259518 39.33286035138782 H 0.0 **** 0.06
28459 H 38.5681922397298 94.9665789735933 37.99185098487635 H 0.0 **** 0.06
28460 H 37.395394262676945 93.62880831019622 38.034427182995486 H 0.0 **** 0.06
28461 C 70.33383872573343 59.53770487707658 35.59531073228783 C 0.0 **** -0.24
28462 H 69.81121026292962 58.65849223255566 35.21931598091186 H 0.0 **** 0.06
28463 H 69.96050393179338 60.42715544872675 35.087847159912144 H 0.0 **** 0.06
28464 H 71.40207550563598 59.4325299962527 35.4069629906914 H 0.0 **** 0.06
28465 H 70.16167472684073 59.63166986714833 36.667324997300625 H 0.0 **** 0.06
28466 C 47.470065054882355 64.94125486876919 54.02859813914239 C 0.0 **** -0.24
28467 H 48.039274506738366 65.51128179944357 54.76318536529618 H 0.0 **** 0.06
28468 H 46.55078640383155 65.47580515380605 53.78811060338154 H 0.0 **** 0.06
28469 H 47.22518736415603 63.96221253054739 54.44034379095291 H 0.0 **** 0.06
28470 H 48.066208275194924 64.81778634462074 53.1245692442981 H 0.0 **** 0.06
28471 C 42.30731908321883 92.19644658923394 118.43789186521248 C 0.0 **** -0.24
28472 H 42.3424740772183 91.20482102932613 118.88814768070668 H 0.0 **** 0.06
28473 H 42.98304361587486 92.86398328705667 118.97420956974639 H 0.0 **** 0.06
28474 H 41.29040309722336 92.58564433310568 118.49595658316323 H 0.0 **** 0.06
28475 H 42.61255380254124 92.13280231765901 117.39371438499964 H 0.0 **** 0.06
28476 C 120.474564882604 37.54708744145505 7.290030557272871 C 0.0 **** -0.24
28477 H 121.22837931515605 37.97936518815186 6.631043234750564 H 0.0 **** 0.06
28478 H 120.8248270816101 37.59288121661774 8.321114831855652 H 0.0 **** 0.06
28479 H 120.30008956279053 36.50870680365172 7.010294221096274 H 0.0 **** 0.06
28480 H 119.54645723890255 38.10985283369682 7.196811940185171 H 0.0 **** 0.06
28481 C 27.497540425717986 19.124076117058394 38.05645897755644 C 0.0 **** -0.24
28482 H 27.849080905338603 18.096759168570316 38.155729759161666 H 0.0 **** 0.06
28483 H 27.97325400867696 19.74578183331863 38.815827224880444 H 0.0 **** 0.06
28484 H 26.41604820862345 19.152050250305535 38.18945334395193 H 0.0 **** 0.06
28485 H 27.75244546355878 19.50068623935698 37.066050634626805 H 0.0 **** 0.06
28486 C 68.46872809431187 2.1390241801402112 61.43612970050505 C 0.0 **** -0.24
28487 H 68.88920012436333 1.5962409828305226 60.589259480152336 H 0.0 **** 0.06
28488 H 68.88339703402092 3.1463083146193185 61.46363913912191 H 0.0 **** 0.06
28489 H 68.71648733465133 1.6171691120942455 62.360395414372064 H 0.0 **** 0.06
28490 H 67.38520335982116 2.1938623648743487 61.32915580734539 H 0.0 **** 0.06
28491 C 13.359983020930933 24.80754515928254 95.89396263927812 C 0.0 **** -0.24
28492 H 13.037582786409871 24.007572439000214 95.22774106541114 H 0.0 **** 0.06
28493 H 13.998695088216653 25.500720284477524 95.34517971792496 H 0.0 **** 0.06
28494 H 13.91709710633824 24.382196429098244 96.72841742883065 H 0.0 **** 0.06
28495 H 12.486989527285758 25.33890867523185 96.27223187256276 H 0.0 **** 0.06
28496 C 53.574991763921645 30.15551230555414 19.02532062403293 C 0.0 **** -0.24
28497 H 53.635768192120935 29.261198003581455 19.6457242353529 H 0.0 **** 0.06
28498 H 53.92403408350643 31.01676392285262 19.595223769934776 H 0.0 **** 0.06
28499 H 52.540594626230956 30.315545600068333 18.7211588647084 H 0.0 **** 0.06
28500 H 54.19830617475938 30.027334480203905 18.14057035455778 H 0.0 **** 0.06
28501 C 49.21333242949166 83.33456066329006 59.880302640596085 C 0.0 **** -0.24
28502 H 49.148008694623314 84.24586177777451 60.47438978421914 H 0.0 **** 0.06
28503 H 48.91431339677405 82.48158590368365 60.48857978496903 H 0.0 **** 0.06
28504 H 50.2390164725488 83.1961144990425 59.538956260428705 H 0.0 **** 0.06
28505 H 48.551685183294325 83.41609547688188 59.017580495486044 H 0.0 **** 0.06
28506 C 29.170420023946903 85.70043802570987 75.4774478025042 C 0.0 **** -0.24
28507 H 28.08181504383493 85.69724346184412 75.41731050610588 H 0.0 **** 0.06
28508 H 29.52950415856707 86.72915289063727 75.4994649999121 H 0.0 **** 0.06
28509 H 29.583582619839966 85.18903140142189 74.60782120139996 H 0.0 **** 0.06
28510 H 29.485591072445622 85.1855791229813 76.38500660975004 H 0.0 **** 0.06
28511 C 116.31496736244691 123.70779582901487 12.079544381026267 C 0.0 **** -0.24
28512 H 116.08047279821196 124.768548385429 12.165222562127497 H 0.0 **** 0.06
28513 H 115.38913392413448 123.13355332110996 12.041788984387551 H 0.0 **** 0.06
28514 H 116.90128328905283 123.39524521166103 12.944509871855246 H 0.0 **** 0.06
28515 H 116.88809555640506 123.53452292533945 11.169253773968364 H 0.0 **** 0.06
28516 C 24.213827180551803 6.466768123898277 125.6129766110363 C 0.0 **** -0.24
28517 H 23.209011987677087 6.09087688804442 125.42307238363182 H 0.0 **** 0.06
28518 H 24.495922821060354 6.244585830524329 126.6422086337907 H 0.0 **** 0.06
28519 H 24.234448360060803 7.544579019354899 125.4549074696696 H 0.0 **** 0.06
28520 H 24.916106622443763 5.985350944353769 124.93209954462657 H 0.0 **** 0.06
28521 C 27.130337426323045 103.16606612363043 4.121251335924512 C 0.0 **** -0.24
28522 H 27.665355557664455 102.21734997431577 4.0691573038542685 H 0.0 **** 0.06
28523 H 27.562927411413767 103.86716898783317 3.408099808287375 H 0.0 **** 0.06
28524 H 27.213029726497062 103.57395596378359 5.129395875863082 H 0.0 **** 0.06
28525 H 26.07961766217506 103.00384886161577 3.8797869775170852 H 0.0 **** 0.06
28526 C 56.26364754533978 125.80504495503996 75.17844463593372 C 0.0 **** -0.24
28527 H 55.32450129666836 126.01740551154685 74.66858707908989 H 0.0 **** 0.06
28528 H 56.536366805247155 124.76071847922623 75.01736066503452 H 0.0 **** 0.06
28529 H 56.14803902490672 125.9892029234741 76.2465672814389 H 0.0 **** 0.06
28530 H 57.04700371453657 126.45081307650369 74.78095482926085 H 0.0 **** 0.06
28531 C 91.0806335986911 86.79140767605529 33.83152358054005 C 0.0 **** -0.24
28532 H 92.10967967267749 86.4308921543252 33.83002324507842 H 0.0 **** 0.06
28533 H 91.03154173586668 87.74936968169611 33.314401523751286 H 0.0 **** 0.06
28534 H 90.74080478671485 86.91401681003411 34.85937560616756 H 0.0 **** 0.06
28535 H 90.44272354690744 86.06915579468765 33.32116732474887 H 0.0 **** 0.06
28536 C 31.240319047652378 53.750248668957454 12.807644233004964 C 0.0 **** -0.24
28537 H 30.659540128408594 53.17378740719357 12.088242622612427 H 0.0 **** 0.06
28538 H 31.884686873174587 53.07862557530274 13.37471211361634 H 0.0 **** 0.06
28539 H 30.56525990122475 54.267721534750066 13.489195731908353 H 0.0 **** 0.06
28540 H 31.85178928780141 54.48086015858365 12.278426463882397 H 0.0 **** 0.06
28541 C 83.1335461724602 18.092351343607668 15.940706861230012 C 0.0 **** -0.24
28542 H 83.31685760438752 18.453441748164323 16.952355056113717 H 0.0 **** 0.06
28543 H 83.61650555834031 17.123639900014943 15.807590704083964 H 0.0 **** 0.06
28544 H 83.54188748392716 18.803831850327 15.222395384770422 H 0.0 **** 0.06
28545 H 82.06051856771099 17.98892667694554 15.779938214238427 H 0.0 **** 0.06
28546 C 44.56387455088952 80.77539582319335 9.076775541799918 C 0.0 **** -0.24
28547 H 44.84367235734868 80.26105151332797 9.995675176320162 H 0.0 **** 0.06
28548 H 45.31265058788745 80.58139959525508 8.308843008939107 H 0.0 **** 0.06
28549 H 44.50521877623669 81.84757461276234 9.263718326427352 H 0.0 **** 0.06
28550 H 43.59268343276506 80.41272599402286 8.738746064892723 H 0.0 **** 0.06
28551 C 117.45705888256241 12.563268606679625 30.28281843383823 C 0.0 **** -0.24
28552 H 117.47439905354473 13.641778004463053 30.43703976925096 H 0.0 **** 0.06
28553 H 116.43894208842045 12.194789732206491 30.40690695758981 H 0.0 **** 0.06
28554 H 118.10958927917865 12.08126183475752 31.01136017427295 H 0.0 **** 0.06
28555 H 117.8057952606184 12.334374194495819 29.276008753485343 H 0.0 **** 0.06
28556 C 12.411313923919636 41.32899524695409 109.31815490444126 C 0.0 **** -0.24
28557 H 13.389894038533043 41.628718778697504 108.94326928548563 H 0.0 **** 0.06
28558 H 12.117838868485876 40.38575727796362 108.85562372915868 H 0.0 **** 0.06
28559 H 11.678074761078932 42.09716663426799 109.07217822534726 H 0.0 **** 0.06
28560 H 12.458605919539536 41.205117419748106 110.39962897647081 H 0.0 **** 0.06
28561 C 67.10517625359967 9.85224959320999 31.658528664863866 C 0.0 **** -0.24
28562 H 67.84201922560919 9.863844329011584 32.46304876447152 H 0.0 **** 0.06
28563 H 66.76448145754091 10.86940051109346 31.46462780097994 H 0.0 **** 0.06
28564 H 66.25766970418567 9.23325704044288 31.951897551071227 H 0.0 **** 0.06
28565 H 67.55933074259713 9.442141115649406 30.75678913642622 H 0.0 **** 0.06
28566 C 113.64914007486156 3.6477911061296027 124.26496153695768 C 0.0 **** -0.24
28567 H 113.78470774056892 3.4828961849764823 125.33424474979199 H 0.0 **** 0.06
28568 H 112.58862335171183 3.773465356522877 124.04905026654897 H 0.0 **** 0.06
28569 H 114.03329946198916 2.789243477520472 123.71389437352886 H 0.0 **** 0.06
28570 H 114.19096661362563 4.54473890955245 123.96446007988642 H 0.0 **** 0.06
28571 C 112.07165152040409 66.43336464986015 56.4257240899511 C 0.0 **** -0.24
28572 H 111.05335762946203 66.64088010560107 56.09510735787376 H 0.0 **** 0.06
28573 H 112.202344120614 65.35812022765896 56.545312193606165 H 0.0 **** 0.06
28574 H 112.25234884905976 66.93039265983248 57.37833211485288 H 0.0 **** 0.06
28575 H 112.7764285782459 66.80598766816905 55.68247658910627 H 0.0 **** 0.06
28576 C 112.23695811788404 45.79589563080642 86.21041754232445 C 0.0 **** -0.24
28577 H 111.43711371137212 45.345603326112844 86.79798984931443 H 0.0 **** 0.06
28578 H 112.4921807576477 46.76958134220514 86.63165162359016 H 0.0 **** 0.06
28579 H 111.9039700115918 45.921631365706936 85.18023459345821 H 0.0 **** 0.06
28580 H 113.1131545426427 45.149170588394604 86.23328508600386 H 0.0 **** 0.06
28581 C 52.484294298819606 118.24405272221512 121.075760350895 C 0.0 **** -0.24
28582 H 51.63625583052519 118.28405103218623 120.3920123190129 H 0.0 **** 0.06
28583 H 52.62581926229646 117.21834871526147 121.41914723379293 H 0.0 **** 0.06
28584 H 52.29234618831461 118.89082340078491 121.93101294431928 H 0.0 **** 0.06
28585 H 53.382865427674716 118.58148566808467 120.55847469834907 H 0.0 **** 0.06
28586 C 45.01194498969093 71.46394240706763 76.08102699261178 C 0.0 **** -0.24
28587 H 45.56453454890125 71.32671127179515 77.0105440011074 H 0.0 **** 0.06
28588 H 45.37517733241779 70.7574844149782 75.33443215049385 H 0.0 **** 0.06
28589 H 45.156670741328355 72.48166609597203 75.71962780123044 H 0.0 **** 0.06
28590 H 43.9506920422114 71.28973244562022 76.26071723947473 H 0.0 **** 0.06
28591 C 118.12415136478734 34.634290987861235 108.78297490910334 C 0.0 **** -0.24
28592 H 117.17526741047293 34.1581663890858 109.03168784368759 H 0.0 **** 0.06
28593 H 118.92316190553225 34.17816538973648 109.36642070403748 H 0.0 **** 0.06
28594 H 118.06717045374957 35.69836027765088 109.01171313431489 H 0.0 **** 0.06
28595 H 118.32780424317744 34.50122305291952 107.72059744130867 H 0.0 **** 0.06
28596 C 120.98748640064838 114.39100587028788 92.9879077297306 C 0.0 **** -0.24
28597 H 120.74919057757921 113.32939317340474 92.92541748809465 H 0.0 **** 0.06
28598 H 122.05865015024159 114.51487949079534 93.1454608540127 H 0.0 **** 0.06
28599 H 120.44336287555075 114.83677118042966 93.82081190787142 H 0.0 **** 0.06
28600 H 120.6974944260703 114.88357244288251 92.06024440196553 H 0.0 **** 0.06
28601 C 35.43208923148036 94.78125133427963 22.080191273796487 C 0.0 **** -0.24
28602 H 34.66579528384562 95.01402449352449 21.340100219273694 H 0.0 **** 0.06
28603 H 34.956207603126494 94.4819412365544 23.0137101957024 H 0.0 **** 0.06
28604 H 36.04923077784326 95.66367875582318 22.25341283122623 H 0.0 **** 0.06
28605 H 36.05668252955127 93.96769879851772 21.71201207589408 H 0.0 **** 0.06
28606 C 7.448205106866567 4.568585867295809 95.00995518414815 C 0.0 **** -0.24
28607 H 6.523273634542136 5.111287852822926 95.20822990543313 H 0.0 **** 0.06
28608 H 7.402398253605725 4.12463507510634 94.01560067674546 H 0.0 **** 0.06
28609 H 7.573116825101295 3.7819928773726303 95.75456987548023 H 0.0 **** 0.06
28610 H 8.291544051498306 5.257245127425847 95.06345593681074 H 0.0 **** 0.06
28611 C 106.03535655237869 60.22832748306064 31.96535172826637 C 0.0 **** -0.24
28612 H 105.3952514807265 61.05082767592785 31.645810786700025 H 0.0 **** 0.06
28613 H 106.21668529266996 60.304805751706255 33.03759957795174 H 0.0 **** 0.06
28614 H 106.98483539449253 60.27922106572038 31.43121006701267 H 0.0 **** 0.06
28615 H 105.5453650708236 59.27968836397042 31.745061774768686 H 0.0 **** 0.06
28616 C 44.16796441526887 72.34201721178921 90.03064192494799 C 0.0 **** -0.24
28617 H 44.662380335434236 73.24460150320134 90.39149928284431 H 0.0 **** 0.06
28618 H 43.983752362241866 71.6694321181549 90.86847704625922 H 0.0 **** 0.06
28619 H 44.80604043511212 71.84652907263126 89.298631687245 H 0.0 **** 0.06
28620 H 43.220090676211974 72.60990903095455 89.56420779210482 H 0.0 **** 0.06
28621 C 130.04106726118246 106.2403920285781 29.400385163740843 C 0.0 **** -0.24
28622 H 129.63455209621785 107.22038622868368 29.650973026190968 H 0.0 **** 0.06
28623 H 131.06024570006244 106.3539070980514 29.031058609942775 H 0.0 **** 0.06
28624 H 129.42404446291422 105.77712818863338 28.630761278044126 H 0.0 **** 0.06
28625 H 130.04523196963103 105.61083992501077 30.291483027483913 H 0.0 **** 0.06
28626 C 99.1083542748577 88.95907345752954 10.339323757514308 C 0.0 **** -0.24
28627 H 98.51660902820538 88.5922749617772 11.178803936273482 H 0.0 **** 0.06
28628 H 100.1681207870785 88.81352595435789 10.551897063508306 H 0.0 **** 0.06
28629 H 98.90928508178979 90.02008357095968 10.190208240312359 H 0.0 **** 0.06
28630 H 98.83971970121698 88.40848490725259 9.437479417497457 H 0.0 **** 0.06
28631 C 78.04091301513309 38.05171816720821 78.4303760227181 C 0.0 **** -0.24
28632 H 78.36529870622805 39.08211738733468 78.57095967204428 H 0.0 **** 0.06
28633 H 78.86431610600258 37.376607235009374 78.66627456507278 H 0.0 **** 0.06
28634 H 77.73661172611342 37.904587895796595 77.3933972569875 H 0.0 **** 0.06
28635 H 77.1981078939119 37.84183729048408 79.08927058015466 H 0.0 **** 0.06
28636 C 105.86714048706654 75.0655014789088 56.99038488264861 C 0.0 **** -0.24
28637 H 105.97598364499294 74.31495487923229 56.20734628186909 H 0.0 **** 0.06
28638 H 106.48334477381144 74.7892253404421 57.846553263027715 H 0.0 **** 0.06
28639 H 104.82232243606325 75.12173772944669 57.29776943114359 H 0.0 **** 0.06
28640 H 106.18691109339835 76.03608796651395 56.60987055455382 H 0.0 **** 0.06
28641 C 120.53582140161848 9.14696428797862 16.329398831581443 C 0.0 **** -0.24
28642 H 120.19682943878672 9.97493153965442 15.706388256973014 H 0.0 **** 0.06
28643 H 121.62322067306297 9.177846768924468 16.413765300611942 H 0.0 **** 0.06
28644 H 120.23402854121511 8.203470307338279 15.875031551105337 H 0.0 **** 0.06
28645 H 120.09192933371145 9.232272483766707 17.32094448289081 H 0.0 **** 0.06
28646 C 128.32418741351776 33.626030222366936 88.97583800254365 C 0.0 **** -0.24
28647 H 127.37551842692326 33.387658289648414 88.49446759620388 H 0.0 **** 0.06
28648 H 128.2548114814039 34.603866230887974 89.45050008044156 H 0.0 **** 0.06
28649 H 129.11720143983663 33.639029358602926 88.22823634554082 H 0.0 **** 0.06
28650 H 128.54819353828404 32.87075569711291 89.73036448941053 H 0.0 **** 0.06
28651 C 112.4847088499381 37.60112554782218 66.16880526023337 C 0.0 **** -0.24
28652 H 112.35094428752683 37.23648238200735 67.18737429885266 H 0.0 **** 0.06
28653 H 111.88072585811278 37.00321580744306 65.48694243774196 H 0.0 **** 0.06
28654 H 113.53554350845502 37.52035741945938 65.88956426052567 H 0.0 **** 0.06
28655 H 112.17273845404372 38.644226223710845 66.11298461921001 H 0.0 **** 0.06
28656 C 68.20727909155838 24.96028274644948 117.66932629688668 C 0.0 **** -0.24
28657 H 68.5412969860305 23.95140970119013 117.42857818700652 H 0.0 **** 0.06
28658 H 67.33704731661382 24.908719785554865 118.3243747238231 H 0.0 **** 0.06
28659 H 67.94062327545122 25.484007941929974 116.75125109649913 H 0.0 **** 0.06
28660 H 69.01038677665755 25.497678308123454 118.17467428078065 H 0.0 **** 0.06
28661 C 80.82688624601303 121.38058741955436 7.017026330825086 C 0.0 **** -0.24
28662 H 80.46316518645227 122.40566394541312 6.941444488154932 H 0.0 **** 0.06
28663 H 81.11732501392555 121.02442291189652 6.028079568886728 H 0.0 **** 0.06
28664 H 80.03838179199283 120.74345025347196 7.416070640457189 H 0.0 **** 0.06
28665 H 81.68952354111832 121.35032121027314 7.682537649736613 H 0.0 **** 0.06
28666 C 14.718775748664179 68.97866014016918 48.01320780574301 C 0.0 **** -0.24
28667 H 15.80067618428938 68.9391854853794 48.138816938530994 H 0.0 **** 0.06
28668 H 14.234598351665053 68.70044496528666 48.94975736776959 H 0.0 **** 0.06
28669 H 14.418334191451226 68.28413028792184 47.22865785344331 H 0.0 **** 0.06
28670 H 14.422324139521724 69.989885649711 47.7374220314241 H 0.0 **** 0.06
28671 C 63.55117424758045 98.30762574644666 12.083278737035332 C 0.0 **** -0.24
28672 H 64.46753592469273 97.92027535287227 12.529448502345005 H 0.0 **** 0.06
28673 H 63.288511799132536 97.7049792709885 11.213946738996409 H 0.0 **** 0.06
28674 H 63.70569620384903 99.34218208166696 11.777331672473363 H 0.0 **** 0.06
28675 H 62.744628325918356 98.26107939836236 12.81444871594772 H 0.0 **** 0.06
28676 C 87.83822395404104 85.33338324351146 8.04804141188555 C 0.0 **** -0.24
28677 H 87.25997106130228 84.43512990858989 8.262389158331388 H 0.0 **** 0.06
28678 H 88.02307360379115 85.39857244602675 6.975383267116939 H 0.0 **** 0.06
28679 H 88.78940359176897 85.28836441840409 8.578865390697104 H 0.0 **** 0.06
28680 H 87.28039477762132 86.2106972901511 8.374342039652703 H 0.0 **** 0.06
28681 C 88.88768154116377 37.71188936092926 94.86276301914963 C 0.0 **** -0.24
28682 H 89.9231043224552 37.865606670841885 94.55944288865217 H 0.0 **** 0.06
28683 H 88.86131044473385 37.114881234266704 95.77550967081292 H 0.0 **** 0.06
28684 H 88.35110401556418 37.1881747935131 94.07144254291923 H 0.0 **** 0.06
28685 H 88.41522080966459 38.67670573046024 95.0451133889028 H 0.0 **** 0.06
28686 C 43.9632767879647 66.96709068432187 92.91225320242492 C 0.0 **** -0.24
28687 H 44.12322852542235 67.77913092774008 92.20305326845153 H 0.0 **** 0.06
28688 H 43.3428824329695 67.32173420041661 93.73602341013476 H 0.0 **** 0.06
28689 H 44.924025694678875 66.62907071729634 93.29992636492247 H 0.0 **** 0.06
28690 H 43.461235178468684 66.1394212852152 92.41001807220613 H 0.0 **** 0.06
28691 C 11.19685105676949 16.411120789022476 28.34344863355608 C 0.0 **** -0.24
28692 H 10.861550384366353 17.34313581829943 27.888380597473315 H 0.0 **** 0.06
28693 H 10.353726354433718 15.725907458394403 28.432352556141893 H 0.0 **** 0.06
28694 H 11.605144856734327 16.616229625708854 29.33373903691384 H 0.0 **** 0.06
28695 H 11.967962495055104 15.959024092539096 27.71924976632326 H 0.0 **** 0.06
28696 C 20.82375480756056 111.98012957392444 107.97519890300335 C 0.0 **** -0.24
28697 H 20.19690206937642 112.80453421304497 107.63631091591654 H 0.0 **** 0.06
28698 H 21.387773659886506 112.29145514753176 108.85487477175161 H 0.0 **** 0.06
28699 H 21.514467716232446 111.69808655745621 107.18152466408115 H 0.0 **** 0.06
28700 H 20.194911230268787 111.12720704494106 108.22930390150013 H 0.0 **** 0.06
28701 C 0.555298271670722 71.6306606687721 116.74720978675248 C 0.0 **** -0.24
28702 H 0.235923549772167 72.6468194053459 116.51690205396704 H 0.0 **** 0.06
28703 H -0.26905422686400016 70.94105880760398 116.5630149087429 H 0.0 **** 0.06
28704 H 0.8524985645710217 71.5716012946632 117.79364964452964 H 0.0 **** 0.06
28705 H 1.400747759195383 71.36439674154869 116.11345106955946 H 0.0 **** 0.06
28706 C 55.80123367520295 126.13418518068443 123.07843715512392 C 0.0 **** -0.24
28707 H 55.805562425518104 126.66665255628357 124.02913120892002 H 0.0 **** 0.06
28708 H 56.177705257996124 125.12273378039617 123.22676991334794 H 0.0 **** 0.06
28709 H 56.438807536708694 126.65957880885918 122.36564425625302 H 0.0 **** 0.06
28710 H 54.78301895914238 126.09064962118526 122.69089366294072 H 0.0 **** 0.06
28711 C 59.289421129324936 69.59191376780058 7.209406181317156 C 0.0 **** -0.24
28712 H 58.82596783383049 69.04985272196642 8.033965068418834 H 0.0 **** 0.06
28713 H 58.51966446314529 69.90662579712715 6.503689122424902 H 0.0 **** 0.06
28714 H 60.00256072996703 68.94145979470075 6.703460549237029 H 0.0 **** 0.06
28715 H 59.80763365137304 70.46866825705314 7.59718032917613 H 0.0 **** 0.06
28716 C 5.370339040215185 64.09879841742563 90.02851856387818 C 0.0 **** -0.24
28717 H 5.0206890305633465 65.09068723874142 89.74564262730789 H 0.0 **** 0.06
28718 H 5.608206517159147 63.527802731282094 89.13046593950432 H 0.0 **** 0.06
28719 H 4.589887470744259 63.5845989557873 90.58985069267405 H 0.0 **** 0.06
28720 H 6.262539249282838 64.19121591486294 90.64857204106133 H 0.0 **** 0.06
28721 C 80.99313040644147 67.53746308115495 85.0733360560933 C 0.0 **** -0.24
28722 H 82.04321428465911 67.24841013102849 85.11375507263321 H 0.0 **** 0.06
28723 H 80.69085978333634 67.9458323524351 86.0384182067132 H 0.0 **** 0.06
28724 H 80.38484404294508 66.66238449256508 84.84219606634875 H 0.0 **** 0.06
28725 H 80.85362521692774 68.29077803961769 84.29887219712526 H 0.0 **** 0.06
28726 C 116.17583984776223 15.876385490907012 80.09414423261197 C 0.0 **** -0.24
28727 H 116.94729668354063 16.489704903360888 79.62689033579427 H 0.0 **** 0.06
28728 H 116.34534573391447 14.8286874481133 79.84409607426025 H 0.0 **** 0.06
28729 H 115.19691744159353 16.18467749568336 79.72785555074796 H 0.0 **** 0.06
28730 H 116.21614574183278 16.003831572201705 81.17582504949611 H 0.0 **** 0.06
28731 C 122.04904473802429 55.26851415288169 121.99294802706136 C 0.0 **** -0.24
28732 H 121.27012640405427 54.9485392828561 122.68611096855055 H 0.0 **** 0.06
28733 H 123.01459060407228 54.89629126379779 122.33526186805459 H 0.0 **** 0.06
28734 H 122.07314554686934 56.35823738475713 121.95215599014608 H 0.0 **** 0.06
28735 H 121.83607245651226 54.87200593240189 121.00089589535878 H 0.0 **** 0.06
28736 C 60.191585094086776 20.93578175579188 44.01701164346338 C 0.0 **** -0.24
28737 H 60.30324054830996 21.795955376235412 44.67657955682046 H 0.0 **** 0.06
28738 H 60.55061987149344 21.19399265484921 43.020359911850335 H 0.0 **** 0.06
28739 H 59.14014527999453 20.654110528522068 43.96284440509399 H 0.0 **** 0.06
28740 H 60.771917604773876 20.099966876362515 44.40840040093059 H 0.0 **** 0.06
28741 C 83.80851841572853 81.09002843740619 74.49208933306335 C 0.0 **** -0.24
28742 H 84.05549324730438 80.24115726637292 75.12846622657668 H 0.0 **** 0.06
28743 H 84.71018361779309 81.44033141017691 73.98874828156119 H 0.0 **** 0.06
28744 H 83.39604164208288 81.89366508746195 75.10207253981514 H 0.0 **** 0.06
28745 H 83.07231591863577 80.78461165194494 73.74813370539022 H 0.0 **** 0.06
28746 C 103.08863026828574 62.026451881831065 7.772768975951408 C 0.0 **** -0.24
28747 H 104.14147358848614 62.29537639876406 7.687451828730559 H 0.0 **** 0.06
28748 H 102.68610888277391 61.81449023022299 6.782657762192798 H 0.0 **** 0.06
28749 H 102.53780435786655 62.85397758607763 8.220518378634722 H 0.0 **** 0.06
28750 H 102.98947374322454 61.14165023508707 8.402853564864586 H 0.0 **** 0.06
28751 C 79.8820972443315 63.492215349119476 1.2966083398845285 C 0.0 **** -0.24
28752 H 80.46964016697845 64.40758862965907 1.354586352946427 H 0.0 **** 0.06
28753 H 79.09168202323684 63.61353911007484 0.5558649314900208 H 0.0 **** 0.06
28754 H 79.4393018016537 63.28273141264333 2.2706879998702902 H 0.0 **** 0.06
28755 H 80.52836847978867 62.66343845947404 1.0067741603571108 H 0.0 **** 0.06
28756 C 102.00542970253768 101.81550867696588 117.19222433428573 C 0.0 **** -0.24
28757 H 102.60396728598876 101.46341802145452 118.03291479455751 H 0.0 **** 0.06
28758 H 102.56560007857568 101.6811407511657 116.26683636981478 H 0.0 **** 0.06
28759 H 101.77443255430325 102.87194403139438 117.32884105282616 H 0.0 **** 0.06
28760 H 101.07861197715783 101.24444432586027 117.14275869271296 H 0.0 **** 0.06
28761 C 22.803759514057234 62.281806107480236 55.299138265952735 C 0.0 **** -0.24
28762 H 23.68206638548577 61.98015065848426 54.72702237672388 H 0.0 **** 0.06
28763 H 23.05729042458438 63.134360134861424 55.92860243128419 H 0.0 **** 0.06
28764 H 22.474334134881275 61.45184421819482 55.924413936459445 H 0.0 **** 0.06
28765 H 22.00263861918532 62.56068273535567 54.61346509448887 H 0.0 **** 0.06
28766 C 19.495375514574533 92.27480391336778 124.23196404620984 C 0.0 **** -0.24
28767 H 19.946147545067603 91.49761751895598 123.61448580659834 H 0.0 **** 0.06
28768 H 19.006971482542383 93.01011100135712 123.59192146917957 H 0.0 **** 0.06
28769 H 20.269772524161894 92.76384061450017 124.82253056993747 H 0.0 **** 0.06
28770 H 18.758631303772518 91.82628003696689 124.89855446117596 H 0.0 **** 0.06
28771 C 61.284913579271574 10.195866037659542 41.37118204391243 C 0.0 **** -0.24
28772 H 61.95633486013109 9.799589306225215 42.133057818719124 H 0.0 **** 0.06
28773 H 60.32178689122807 9.688467030185464 41.43758819210038 H 0.0 **** 0.06
28774 H 61.71631477053177 10.029855913975425 40.38396062489076 H 0.0 **** 0.06
28775 H 61.14469772648576 11.26469784092022 41.53212163767253 H 0.0 **** 0.06
28776 C 16.320668740328585 72.3938639810189 59.06703877734947 C 0.0 **** -0.24
28777 H 15.690664094823603 73.22393708090053 59.38798785703534 H 0.0 **** 0.06
28778 H 17.332440018186503 72.53971462131385 59.44726373870465 H 0.0 **** 0.06
28779 H 16.342975686127204 72.3548493900885 57.978337401359056 H 0.0 **** 0.06
28780 H 15.916628558277807 71.46003820418535 59.456434915821205 H 0.0 **** 0.06
28781 C 53.572480788873975 42.608478430441295 31.872463598342932 C 0.0 **** -0.24
28782 H 52.58554850527614 42.16418953221245 32.007384307280354 H 0.0 **** 0.06
28783 H 54.242007162955076 41.87532550406658 31.423461760630154 H 0.0 **** 0.06
28784 H 53.965631739443225 42.91777225530919 32.840084413075935 H 0.0 **** 0.06
28785 H 53.49213261175379 43.47662222425535 31.21802260692332 H 0.0 **** 0.06
28786 C 42.80954048934572 26.875011096318758 49.19645724779157 C 0.0 **** -0.24
28787 H 42.56024455418709 27.897301711679262 49.48044825384919 H 0.0 **** 0.06
28788 H 43.89375954876293 26.759782867940118 49.17181927519752 H 0.0 **** 0.06
28789 H 42.39835160216082 26.66104257072638 48.21048281742831 H 0.0 **** 0.06
28790 H 42.38711998312675 26.183247767199703 49.924661089260255 H 0.0 **** 0.06
28791 C 0.7144787578401974 67.64578889194429 43.064968000592444 C 0.0 **** -0.24
28792 H 1.8044836318538273 67.65153787673351 43.083510249430304 H 0.0 **** 0.06
28793 H 0.3329478336591478 67.8707490403619 44.060700158433775 H 0.0 **** 0.06
28794 H 0.3613943550137151 66.66158108905286 42.75420446372294 H 0.0 **** 0.06
28795 H 0.35920909921554767 68.39765400790091 42.36030937088191 H 0.0 **** 0.06
28796 C 37.70029286348142 58.116471491666005 8.7490495284936 C 0.0 **** -0.24
28797 H 37.74274486452637 57.913321474270305 7.679200781104782 H 0.0 **** 0.06
28798 H 38.71107195554245 58.25128110459244 9.132760888629832 H 0.0 **** 0.06
28799 H 37.22598100454553 57.27751190387309 9.258589085274082 H 0.0 **** 0.06
28800 H 37.11987282170591 59.022774203623925 8.923988038555962 H 0.0 **** 0.06
28801 C 90.313292127321 38.09643378435146 40.45943523751042 C 0.0 **** -0.24
28802 H 89.34983489407699 38.287462482741944 40.93170491442868 H 0.0 **** 0.06
28803 H 90.24863233175444 37.19024781546284 39.85488108492312 H 0.0 **** 0.06
28804 H 91.07551422970104 37.96757883247699 41.22774463191538 H 0.0 **** 0.06
28805 H 90.57950313349113 38.939534772721004 39.82197159919193 H 0.0 **** 0.06
28806 C 76.69346694426233 71.62506158551 116.71656074192586 C 0.0 **** -0.24
28807 H 77.32103231290492 70.77792988292609 116.43867211456038 H 0.0 **** 0.06
28808 H 76.97842496178674 71.97868892752251 117.70821349680489 H 0.0 **** 0.06
28809 H 75.64866743749542 71.31627775384263 116.72690227530524 H 0.0 **** 0.06
28810 H 76.82798050665974 72.42804299222044 115.99173839170439 H 0.0 **** 0.06
28811 C 103.94255610147192 20.362573158094307 97.13820783774139 C 0.0 **** -0.24
28812 H 103.2937838169573 19.754013313030818 96.50868271774965 H 0.0 **** 0.06
28813 H 104.45235667855812 21.105307102052016 96.52440808144922 H 0.0 **** 0.06
28814 H 104.68034360207659 19.72373662974961 97.62374256189037 H 0.0 **** 0.06
28815 H 103.34325366856976 20.865884134027496 97.8973897437927 H 0.0 **** 0.06
28816 C 38.22299678240546 66.55909030651944 73.22869241369014 C 0.0 **** -0.24
28817 H 38.805983975720125 67.27585475271613 72.650925943863 H 0.0 **** 0.06
28818 H 37.396918815066215 67.07446385680922 73.71874625647322 H 0.0 **** 0.06
28819 H 38.86027024947029 66.09507857674333 73.98181733127973 H 0.0 **** 0.06
28820 H 37.828814089365125 65.79096403980915 72.56328012314461 H 0.0 **** 0.06
28821 C 121.91132718993241 23.20631441320583 116.58557393656537 C 0.0 **** -0.24
28822 H 122.43963939616222 23.469426479822843 117.50142690964857 H 0.0 **** 0.06
28823 H 121.0845897973044 23.89930105315362 116.43167061797169 H 0.0 **** 0.06
28824 H 121.52338032502585 22.190626669749392 116.66911532425733 H 0.0 **** 0.06
28825 H 122.59763092063666 23.264494880995642 115.74018955871665 H 0.0 **** 0.06
28826 C 108.33252302698324 71.58914757524867 90.31837861778436 C 0.0 **** -0.24
28827 H 107.55745807412494 71.71345416659405 89.56078982916391 H 0.0 **** 0.06
28828 H 109.30289890602083 71.49301748077767 89.83141545446406 H 0.0 **** 0.06
28829 H 108.12813433322106 70.69174167864433 90.90267341597442 H 0.0 **** 0.06
28830 H 108.34018623695435 72.45805681536089 90.9760095521755 H 0.0 **** 0.06
28831 C 52.00558502387719 100.00099637741727 0.34377802682629977 C 0.0 **** -0.24
28832 H 52.77619893666372 100.57120218062215 0.8628011706038023 H 0.0 **** 0.06
28833 H 51.8220563444919 99.06817594888491 0.8781110796305995 H 0.0 **** 0.06
28834 H 52.33848845633611 99.77958654077509 -0.6708896680375744 H 0.0 **** 0.06
28835 H 51.08641837663015 100.58472030556197 0.3046057681762022 H 0.0 **** 0.06
28836 C 16.860121080944097 57.93188180436918 69.01412618594868 C 0.0 **** -0.24
28837 H 16.183044126592165 58.62948179925536 69.50618458106635 H 0.0 **** 0.06
28838 H 16.940055604846407 57.0215915071888 69.60880386970939 H 0.0 **** 0.06
28839 H 17.84498656444353 58.38912321106372 68.91558289210084 H 0.0 **** 0.06
28840 H 16.473101073414256 57.68643223336244 68.02463007724306 H 0.0 **** 0.06
28841 C 36.4634482027021 69.90760359094828 70.63239101720059 C 0.0 **** -0.24
28842 H 36.16790684588118 70.89543740848337 70.27986855336722 H 0.0 **** 0.06
28843 H 37.141524588287055 70.0123492400523 71.48033932196883 H 0.0 **** 0.06
28844 H 36.96758735065103 69.37140212262943 69.82837473939513 H 0.0 **** 0.06
28845 H 35.578916267840356 69.35171265289385 70.94056449856592 H 0.0 **** 0.06
28846 C 70.52665524953375 124.71842250507535 31.00345211866461 C 0.0 **** -0.24
28847 H 71.52050416828479 124.88873035772022 30.588199073269507 H 0.0 **** 0.06
28848 H 70.46282886810121 123.70017528548269 31.386061863838137 H 0.0 **** 0.06
28849 H 69.77846058527695 124.86207165711187 30.22321997620118 H 0.0 **** 0.06
28850 H 70.3463900035103 125.42440391621855 31.814159933259646 H 0.0 **** 0.06
28851 C 27.11959869961811 85.58679074567239 31.384062926645584 C 0.0 **** -0.24
28852 H 27.004320312582934 86.14620288164576 32.31187830032249 H 0.0 **** 0.06
28853 H 26.66567316864962 86.14451086551463 30.564898503909973 H 0.0 **** 0.06
28854 H 26.629403889016373 84.61786663965118 31.48053888958617 H 0.0 **** 0.06
28855 H 28.18000546150904 85.43763391607021 31.179225818588463 H 0.0 **** 0.06
28856 C 69.49392489732702 121.1888501806915 125.16462902921208 C 0.0 **** -0.24
28857 H 70.24257547090866 120.87050833061446 124.43842498368127 H 0.0 **** 0.06
28858 H 69.67488231145785 122.2272587757615 125.44168219466306 H 0.0 **** 0.06
28859 H 69.5573594693854 120.55848715929207 126.05178798026557 H 0.0 **** 0.06
28860 H 68.50042522870592 121.09801048249332 124.72449941425074 H 0.0 **** 0.06
28861 C 108.02149246949173 102.02267491990278 91.27471617816832 C 0.0 **** -0.24
28862 H 107.69539997409304 101.04893459834045 90.90800377095275 H 0.0 **** 0.06
28863 H 107.24994975569278 102.76533122326225 91.06876475492194 H 0.0 **** 0.06
28864 H 108.94502468316422 102.30941651461927 90.7727680524994 H 0.0 **** 0.06
28865 H 108.19401508351878 101.96527199038377 92.35000376208299 H 0.0 **** 0.06
28866 C 10.861163940732855 104.8448271139103 3.046316221476218 C 0.0 **** -0.24
28867 H 11.22769945421021 103.82221745076463 2.953938234998816 H 0.0 **** 0.06
28868 H 10.283112291405132 105.10527099904994 2.1594088025526617 H 0.0 **** 0.06
28869 H 11.706573074803853 105.52644066014437 3.1433310354296964 H 0.0 **** 0.06
28870 H 10.226962584426758 104.92490812032516 3.9298841077443285 H 0.0 **** 0.06
28871 C 61.97739142331531 16.328938734223527 29.88440763827049 C 0.0 **** -0.24
28872 H 61.59205510347803 17.214079985203057 29.37650365317674 H 0.0 **** 0.06
28873 H 61.33832344576794 16.090797189493486 30.73448832564017 H 0.0 **** 0.06
28874 H 62.99142541140995 16.524260588255174 30.234791676881912 H 0.0 **** 0.06
28875 H 61.98912844105499 15.4894175454356 29.189775470145435 H 0.0 **** 0.06
28876 C 126.63327917125082 106.81495236029366 3.255769247991566 C 0.0 **** -0.24
28877 H 126.52834238494688 105.8091525732722 2.8503614689558106 H 0.0 **** 0.06
28878 H 127.16961086797971 107.44006997187677 2.5423642357660867 H 0.0 **** 0.06
28879 H 127.19010681338318 106.77259096716833 4.192170867160598 H 0.0 **** 0.06
28880 H 125.6460041292404 107.23717465628374 3.440031909989159 H 0.0 **** 0.06
28881 C 123.5803012896865 82.22452750088226 48.99771419629408 C 0.0 **** -0.24
28882 H 123.85074815474994 81.55396479966386 49.81241385792811 H 0.0 **** 0.06
28883 H 124.33582719094322 82.16731304722234 48.2133273921105 H 0.0 **** 0.06
28884 H 123.52239566419631 83.24715053193505 49.37224005127712 H 0.0 **** 0.06
28885 H 122.61208547744857 81.9316414708095 48.59250518146095 H 0.0 **** 0.06
28886 C 39.20983542648372 13.649124432917628 5.0919278829700545 C 0.0 **** -0.24
28887 H 39.55160783708472 14.640665815770749 4.792029774031171 H 0.0 **** 0.06
28888 H 38.79309030995941 13.698125447050149 6.097875134471263 H 0.0 **** 0.06
28889 H 40.050738354723535 12.956296784008003 5.079781378739053 H 0.0 **** 0.06
28890 H 38.44425926731344 13.303969877763581 4.3968761149314375 H 0.0 **** 0.06
28891 C 53.499673394050944 87.54288282709501 76.98043319318502 C 0.0 **** -0.24
28892 H 53.50985488921043 88.49344357500264 77.51420289823702 H 0.0 **** 0.06
28893 H 53.994960969000545 87.66223324783338 76.01648236386075 H 0.0 **** 0.06
28894 H 52.468650551460144 87.22658921560877 76.82223484431815 H 0.0 **** 0.06
28895 H 54.02411297786557 86.7897567609421 77.5680935473469 H 0.0 **** 0.06
28896 C 8.043790512573878 19.92952668870825 58.97433516528173 C 0.0 **** -0.24
28897 H 7.94444675744063 19.67276672954158 57.91958324080389 H 0.0 **** 0.06
28898 H 7.160053556234288 20.480110350630156 59.29867782611538 H 0.0 **** 0.06
28899 H 8.930010964137068 20.547324782438864 59.11508752741872 H 0.0 **** 0.06
28900 H 8.139662845433293 19.016028154183488 59.5616463443057 H 0.0 **** 0.06
28901 C 2.8185618320919836 17.60175975026283 121.92557127775098 C 0.0 **** -0.24
28902 H 1.8074926664807123 17.434774588946254 121.55169874613529 H 0.0 **** 0.06
28903 H 3.4399535801854846 16.738522424627575 121.68739890159071 H 0.0 **** 0.06
28904 H 2.7876185080182267 17.741274041008325 123.00593728777204 H 0.0 **** 0.06
28905 H 3.236371887650332 18.491088834978854 121.4545670715836 H 0.0 **** 0.06
28906 C 3.5984342129637525 61.79671855109585 57.84442589875272 C 0.0 **** -0.24
28907 H 2.9228492476528345 62.344138551469214 57.18733857333751 H 0.0 **** 0.06
28908 H 3.3991836796421353 60.7277068921488 57.76106018461235 H 0.0 **** 0.06
28909 H 3.4424181897674657 62.11601182543072 58.87445610583842 H 0.0 **** 0.06
28910 H 4.629922793662104 61.99840737276074 57.554376878051926 H 0.0 **** 0.06
28911 C 24.30370124046499 112.57073030242326 125.30759679099495 C 0.0 **** -0.24
28912 H 24.82130944304808 112.13849228502168 124.45187694598104 H 0.0 **** 0.06
28913 H 24.272169722487178 113.65610553326324 125.2032083645311 H 0.0 **** 0.06
28914 H 24.833402175943746 112.3094967810141 126.22340212162686 H 0.0 **** 0.06
28915 H 23.286893013549786 112.18021872451287 125.35189375795386 H 0.0 **** 0.06
28916 C 41.2953329631225 98.55435249656438 73.16763742911365 C 0.0 **** -0.24
28917 H 42.163443081747225 97.97104807320635 72.85898017796484 H 0.0 **** 0.06
28918 H 41.607623599082835 99.32195936372537 73.87607144511986 H 0.0 **** 0.06
28919 H 40.56566113207825 97.89731800006045 73.64160915408593 H 0.0 **** 0.06
28920 H 40.84585301645167 99.02642147826253 72.29391142311601 H 0.0 **** 0.06
28921 C 11.833598668774016 77.33886294670606 18.05194104780952 C 0.0 **** -0.24
28922 H 11.559499241705566 77.90319248699922 18.942745790364427 H 0.0 **** 0.06
28923 H 11.14184253403161 76.50568231548243 17.92272793413582 H 0.0 **** 0.06
28924 H 12.84757369007147 76.95578525866546 18.163482824058917 H 0.0 **** 0.06
28925 H 11.78449164435051 77.99094146716797 17.17980884439669 H 0.0 **** 0.06
28926 C 87.05151694151431 75.07663253101362 115.37008150608494 C 0.0 **** -0.24
28927 H 86.6585655710645 76.08119172429724 115.53074446945152 H 0.0 **** 0.06
28928 H 87.05299782893498 74.85323732784637 114.30258867934907 H 0.0 **** 0.06
28929 H 86.42286826407366 74.35442894378096 115.8922293415228 H 0.0 **** 0.06
28930 H 88.06826642487198 75.01822797957779 115.75629228795856 H 0.0 **** 0.06
28931 C 73.95007444833361 82.89398859977365 11.042278215727695 C 0.0 **** -0.24
28932 H 74.7310182933607 82.19969993689375 10.732682650560232 H 0.0 **** 0.06
28933 H 73.76508964130007 82.77957568233056 12.11059127991567 H 0.0 **** 0.06
28934 H 73.03481674385084 82.68133445433716 10.490208477454331 H 0.0 **** 0.06
28935 H 74.26988583222564 83.91513102130446 10.836462126863136 H 0.0 **** 0.06
28936 C 117.27686755341668 57.13238774298375 23.94205949602113 C 0.0 **** -0.24
28937 H 116.94000882575244 58.02392349456517 24.47179312442114 H 0.0 **** 0.06
28938 H 117.89976074927336 56.5296391310753 24.604163517685862 H 0.0 **** 0.06
28939 H 117.85525012857525 57.42665810459587 23.066741281897123 H 0.0 **** 0.06
28940 H 116.41117050818286 56.548749009178835 23.626551955226134 H 0.0 **** 0.06
28941 C 75.6970442845771 47.2804917164861 26.199972555367026 C 0.0 **** -0.24
28942 H 75.31179780792485 46.409586280828805 26.728358050060393 H 0.0 **** 0.06
28943 H 75.05278058201718 47.504587572016845 25.349744466426273 H 0.0 **** 0.06
28944 H 76.70726189871819 47.073086294508215 25.846870813348374 H 0.0 **** 0.06
28945 H 75.71772485622189 48.136005827918325 26.876094190427892 H 0.0 **** 0.06
28946 C 122.11761706516745 114.03711084270161 48.517242979494725 C 0.0 **** -0.24
28947 H 122.82327635273049 114.19063250916348 49.333727848499905 H 0.0 **** 0.06
28948 H 121.09924120894283 114.09104006863093 48.904021736967806 H 0.0 **** 0.06
28949 H 122.2853220809329 113.05717347262554 48.07186653973341 H 0.0 **** 0.06
28950 H 122.26137334505361 114.80904843843238 47.76220598185283 H 0.0 **** 0.06
28951 C 75.16006191194526 120.81522165090324 37.032591301061814 C 0.0 **** -0.24
28952 H 74.63324448794818 120.09697125007676 36.403461508481485 H 0.0 **** 0.06
28953 H 74.65244632279897 120.8965084220236 37.994095009594446 H 0.0 **** 0.06
28954 H 75.169805040462 121.78887570490754 36.543177061976365 H 0.0 **** 0.06
28955 H 76.18377569711001 120.4762854413052 37.18956826867375 H 0.0 **** 0.06
28956 C 0.6620760684602942 122.9106715823873 85.76740174469387 C 0.0 **** -0.24
28957 H 1.284765009182621 122.31142483181122 85.10382791125801 H 0.0 **** 0.06
28958 H 0.11247938514969746 122.25296929155388 86.44171452112585 H 0.0 **** 0.06
28959 H -0.04274958462630707 123.49420135997838 85.1742539355742 H 0.0 **** 0.06
28960 H 1.29245330092931 123.58418537823911 86.34803517712425 H 0.0 **** 0.06
28961 C 14.771623494451092 103.01553664022163 49.02378882054116 C 0.0 **** -0.24
28962 H 14.368699688802764 102.42737071047382 48.19894414030301 H 0.0 **** 0.06
28963 H 14.26720002557505 102.73727158669831 49.94919143650412 H 0.0 **** 0.06
28964 H 14.610485902945328 104.07534902380928 48.82683997012276 H 0.0 **** 0.06
28965 H 15.840369720045885 102.82299421046086 49.11970237212975 H 0.0 **** 0.06
28966 C 55.757196071513164 58.11194540130904 47.48695617313422 C 0.0 **** -0.24
28967 H 55.439053881312844 59.004295345150226 46.948085518899376 H 0.0 **** 0.06
28968 H 55.645024068085746 57.23889332123174 46.84309823315411 H 0.0 **** 0.06
28969 H 55.14224852879741 57.98753946460589 48.37892770659337 H 0.0 **** 0.06
28970 H 56.802457713759594 58.21756590697761 47.77903138584887 H 0.0 **** 0.06
28971 C 64.26913392642001 71.61742817954038 72.31761475124142 C 0.0 **** -0.24
28972 H 63.91528543028329 70.79803786022626 71.69105886673 H 0.0 **** 0.06
28973 H 63.51356427888936 71.85400579123022 73.06637304131584 H 0.0 **** 0.06
28974 H 64.45447023067521 72.4941987201021 71.69815186220569 H 0.0 **** 0.06
28975 H 65.19414012817282 71.32139978923902 72.81394858366863 H 0.0 **** 0.06
28976 C 84.39978627403283 6.146798290980811 113.02887557841103 C 0.0 **** -0.24
28977 H 84.21289748396802 6.459606126456919 114.05565269582132 H 0.0 **** 0.06
28978 H 84.92938070233924 6.938241800407241 112.49891674929626 H 0.0 **** 0.06
28979 H 83.45084088219984 5.947499185074847 112.53096897993123 H 0.0 **** 0.06
28980 H 85.0057542011491 5.2409127712684125 113.03019873625158 H 0.0 **** 0.06
28981 C 71.44667731890341 120.75947512318817 21.63605086902021 C 0.0 **** -0.24
28982 H 71.72915085482772 120.02945085624413 22.394278878759906 H 0.0 **** 0.06
28983 H 70.87680940631995 121.56428167625899 22.100371277164527 H 0.0 **** 0.06
28984 H 70.83718373612011 120.27448130543519 20.873883557433146 H 0.0 **** 0.06
28985 H 72.34547304662455 121.1703771028919 21.17472955987631 H 0.0 **** 0.06
28986 C 73.84153929135559 11.791428556666489 124.7410019888128 C 0.0 **** -0.24
28987 H 74.56989541812041 11.226797726747776 125.32160232753671 H 0.0 **** 0.06
28988 H 73.00414008815491 11.14437262421339 124.48083158943581 H 0.0 **** 0.06
28989 H 74.31173447321063 12.16246389295415 123.82999717423976 H 0.0 **** 0.06
28990 H 73.48005285651372 12.63342053781787 125.33187893662466 H 0.0 **** 0.06
28991 C 7.493517442372763 4.691183252500821 77.2115010327716 C 0.0 **** -0.24
28992 H 6.547377136373996 5.229764269620347 77.1576449119047 H 0.0 **** 0.06
28993 H 7.671979619961803 4.370571553078747 78.23841432996039 H 0.0 **** 0.06
28994 H 8.302907750813176 5.3456171076375085 76.88910518200544 H 0.0 **** 0.06
28995 H 7.451901866168669 3.817837214638871 76.5605207570801 H 0.0 **** 0.06
28996 C 42.257429707842704 126.04297346266881 104.95900953668043 C 0.0 **** -0.24
28997 H 42.438171205747096 125.02633293447218 105.30659399777849 H 0.0 **** 0.06
28998 H 41.35862519834694 126.43450892292047 105.43563614004646 H 0.0 **** 0.06
28999 H 42.12376633398483 126.03824711827869 103.87771671013388 H 0.0 **** 0.06
29000 H 43.10918601158215 126.6721592051414 105.21685436578076 H 0.0 **** 0.06
29001 C 38.146407428617664 102.00179060493002 12.617459664976423 C 0.0 **** -0.24
29002 H 37.41438445893667 101.83598996052868 11.827168593967826 H 0.0 **** 0.06
29003 H 37.72404891727794 102.66844058613836 13.369698052683049 H 0.0 **** 0.06
29004 H 39.0429662522144 102.45394424246771 12.192818804617588 H 0.0 **** 0.06
29005 H 38.404735857201345 101.04935352664279 13.078959864979907 H 0.0 **** 0.06
29006 C 32.349946118641384 127.41050632539847 111.73829588295929 C 0.0 **** -0.24
29007 H 32.110968340016655 126.36621743097325 111.54058468020338 H 0.0 **** 0.06
29008 H 32.8132203969644 127.85056031094396 110.85469588646447 H 0.0 **** 0.06
29009 H 33.04129964852825 127.47212087138726 112.57965757746113 H 0.0 **** 0.06
29010 H 31.436926407484123 127.95369896017203 111.97956993797277 H 0.0 **** 0.06
29011 C 84.6237099274561 42.47628772108229 84.59214644642975 C 0.0 **** -0.24
29012 H 84.6056070393214 41.38760389966353 84.6169090017849 H 0.0 **** 0.06
29013 H 83.90850772181693 42.83476485390358 83.85094236337676 H 0.0 **** 0.06
29014 H 85.62398059185153 42.81715589481203 84.32639484436214 H 0.0 **** 0.06
29015 H 84.3554079463621 42.86608420127689 85.57427334397823 H 0.0 **** 0.06
29016 C 104.42292506546679 12.52987438805722 68.02601631484072 C 0.0 **** -0.24
29017 H 104.53962705915089 13.47919082952659 68.54847147106167 H 0.0 **** 0.06
29018 H 105.38633181166065 12.021245548766785 67.97521582746315 H 0.0 **** 0.06
29019 H 104.05443084819359 12.713534783061544 67.01674313896818 H 0.0 **** 0.06
29020 H 103.70937249665744 11.904490208736881 68.56404783910058 H 0.0 **** 0.06
29021 C 55.358755402927926 97.84818394747315 13.08045138162504 C 0.0 **** -0.24
29022 H 54.964058562923555 97.63434247216263 12.087088553799731 H 0.0 **** 0.06
29023 H 55.567656756659915 96.91177814260578 13.598543948795282 H 0.0 **** 0.06
29024 H 54.62430610382536 98.4204849787128 13.647221379293285 H 0.0 **** 0.06
29025 H 56.27810621732897 98.42657832835677 12.98894460141645 H 0.0 **** 0.06
29026 C 54.245637548007835 114.02984102615753 91.942916015005 C 0.0 **** -0.24
29027 H 54.63525159717078 114.0423639667504 90.9251220649517 H 0.0 **** 0.06
29028 H 54.35407679779509 113.02969331191102 92.36089433185944 H 0.0 **** 0.06
29029 H 53.19150985806861 114.30674969855798 91.93088003375601 H 0.0 **** 0.06
29030 H 54.8017496983217 114.74212778798207 92.5535299609192 H 0.0 **** 0.06
29031 C 32.32318400336749 56.48935295719485 86.13665491463678 C 0.0 **** -0.24
29032 H 32.65785104121298 55.818598959784026 85.34638000943485 H 0.0 **** 0.06
29033 H 32.82653265935565 57.451613957145184 86.03478020407641 H 0.0 **** 0.06
29034 H 32.562380679024756 56.0546304297514 87.10704284226946 H 0.0 **** 0.06
29035 H 31.24544198247105 56.63295065304064 86.05917388125468 H 0.0 **** 0.06
29036 C 112.38038536039079 17.3968382523191 10.853138189930434 C 0.0 **** -0.24
29037 H 111.6299455337645 16.968323827639637 10.189303957469889 H 0.0 **** 0.06
29038 H 112.9427700826551 16.59447451259365 11.331050674850303 H 0.0 **** 0.06
29039 H 111.8879939871112 17.99974708735985 11.616425270356899 H 0.0 **** 0.06
29040 H 113.06004240175332 18.023584043337223 10.27671089335783 H 0.0 **** 0.06
29041 C 99.21863571564256 71.24309880756931 120.22791424433055 C 0.0 **** -0.24
29042 H 98.21596207315537 71.66350607429314 120.31226961465367 H 0.0 **** 0.06
29043 H 99.66690446959609 71.55928170201236 119.28541966437496 H 0.0 **** 0.06
29044 H 99.16017806490277 70.15520210003763 120.25711884929339 H 0.0 **** 0.06
29045 H 99.83108587494246 71.59633797697774 121.05829634567577 H 0.0 **** 0.06
29046 C 75.19228004902959 129.22450600226458 61.88426436098615 C 0.0 **** -0.24
29047 H 74.88140147644086 128.19298719620275 61.71575623147294 H 0.0 **** 0.06
29048 H 75.06403168054678 129.47422941993818 62.9384887951403 H 0.0 **** 0.06
29049 H 74.58097772485277 129.8905236293114 61.27596228655716 H 0.0 **** 0.06
29050 H 76.239692321678 129.3383188176765 61.60786872119047 H 0.0 **** 0.06
29051 C 116.83720245688204 94.38831244519034 36.46197480218606 C 0.0 **** -0.24
29052 H 116.90425008401269 95.47224804480084 36.36507928992557 H 0.0 **** 0.06
29053 H 117.47235296248795 94.05766231105241 37.28331319234705 H 0.0 **** 0.06
29054 H 117.16808655140323 93.9204673976437 35.53500923075994 H 0.0 **** 0.06
29055 H 115.80464275176223 94.1058783953444 36.66366726618006 H 0.0 **** 0.06
29056 C 2.4841775259836822 104.20191897707842 102.29895374977853 C 0.0 **** -0.24
29057 H 2.8206671772438767 103.52927060237042 103.08846207697628 H 0.0 **** 0.06
29058 H 2.0585814441901107 105.10048306288243 102.74540533217446 H 0.0 **** 0.06
29059 H 1.7259179574722907 103.70253686594738 101.69453296019007 H 0.0 **** 0.06
29060 H 3.329628883356918 104.47410652631147 101.66825070608017 H 0.0 **** 0.06
29061 C 97.30785685492522 29.050350378445756 83.08441468915646 C 0.0 **** -0.24
29062 H 97.52526154439133 28.00313667251413 83.29498328510147 H 0.0 **** 0.06
29063 H 97.15157603391297 29.179735579487158 82.01329599155076 H 0.0 **** 0.06
29064 H 98.1457993747614 29.667975879788855 83.40654277318083 H 0.0 **** 0.06
29065 H 96.40771893191224 29.3499571905368 83.622132092725 H 0.0 **** 0.06
29066 C 35.977351266696225 26.86683124115021 11.006623766599716 C 0.0 **** -0.24
29067 H 35.896268071788356 26.40074533599919 10.024327503485807 H 0.0 **** 0.06
29068 H 35.097545645448385 27.48595942529913 11.188219350418507 H 0.0 **** 0.06
29069 H 36.872619614502085 27.487581127916968 11.041317132288171 H 0.0 **** 0.06
29070 H 36.04169019464388 26.093190944089457 11.771103070425113 H 0.0 **** 0.06
29071 C 35.23438846944181 20.966940843298033 11.573336237186581 C 0.0 **** -0.24
29072 H 35.52031803423503 20.597235224536632 12.559074854608753 H 0.0 **** 0.06
29073 H 34.50498970177842 20.288263915076115 11.12997115540233 H 0.0 **** 0.06
29074 H 36.11690395198719 21.020331624386188 10.935618954968575 H 0.0 **** 0.06
29075 H 34.79521723563043 21.95949316370597 11.67151446351916 H 0.0 **** 0.06
29076 C 29.868572790003228 25.42323758732624 118.24449096234954 C 0.0 **** -0.24
29077 H 28.946007261801014 25.72962716265141 117.75108771619645 H 0.0 **** 0.06
29078 H 30.028181632977564 24.356480499300858 118.08687810629641 H 0.0 **** 0.06
29079 H 29.79323249187493 25.625074186540644 119.31358233697105 H 0.0 **** 0.06
29080 H 30.705913897218082 25.98237457429275 117.82834422707043 H 0.0 **** 0.06
29081 C 100.7973202746833 35.08120281321888 56.4389256471988 C 0.0 **** -0.24
29082 H 100.36972990574267 34.38114289806455 55.72111782837888 H 0.0 **** 0.06
29083 H 100.26264200019739 35.00096625857674 57.38587377651095 H 0.0 **** 0.06
29084 H 100.70534339085094 36.097000934244846 56.054099821323604 H 0.0 **** 0.06
29085 H 101.84987335229147 34.845485829306 56.594312141071526 H 0.0 **** 0.06
29086 C 1.2503895278608788 52.68979087417053 19.036983097632465 C 0.0 **** -0.24
29087 H 1.3618497074632323 51.791309740278564 19.643503270105988 H 0.0 **** 0.06
29088 H 1.7582559991320679 53.522224649440304 19.524348610790724 H 0.0 **** 0.06
29089 H 0.1911215299440574 52.92421137351086 18.926811115040948 H 0.0 **** 0.06
29090 H 1.6899462007581576 52.52084196211521 18.05399089935164 H 0.0 **** 0.06
29091 C 10.454909768362256 18.62151477137496 99.82118664987534 C 0.0 **** -0.24
29092 H 10.393557732149304 18.875548491339245 100.87944525359896 H 0.0 **** 0.06
29093 H 10.499212436278128 17.537568871967693 99.7100736691477 H 0.0 **** 0.06
29094 H 11.351228259076095 19.068223309326967 99.39124235423678 H 0.0 **** 0.06
29095 H 9.57400991454034 19.00429440090005 99.30545542750811 H 0.0 **** 0.06
29096 C 29.883997068044096 31.033824829536705 117.58022808518034 C 0.0 **** -0.24
29097 H 30.19673258067769 31.58150835642096 118.46875364746215 H 0.0 **** 0.06
29098 H 30.150884850299008 31.60321454205871 116.68974745503427 H 0.0 **** 0.06
29099 H 28.804405853693368 30.88504252967269 117.60752503290796 H 0.0 **** 0.06
29100 H 30.384134108093974 30.064821552140174 117.55556740202653 H 0.0 **** 0.06
29101 C 24.295764395908066 101.42649818110469 5.829109068300738 C 0.0 **** -0.24
29102 H 24.895213773951212 100.53360723592624 5.6507956114595 H 0.0 **** 0.06
29103 H 24.062549562849995 101.9027130140501 4.876935907868983 H 0.0 **** 0.06
29104 H 24.855938210321142 102.12015251268522 6.455771186689333 H 0.0 **** 0.06
29105 H 23.37075235508422 101.14693479293287 6.333539950012323 H 0.0 **** 0.06
29106 C 56.84901820066398 130.55745843855485 112.14052959635757 C 0.0 **** -0.24
29107 H 57.532046855383754 131.11329794308963 111.4976627293754 H 0.0 **** 0.06
29108 H 55.82542345864343 130.88390860376043 111.95154104808525 H 0.0 **** 0.06
29109 H 57.10253549229239 130.74163023376875 113.1843237233905 H 0.0 **** 0.06
29110 H 56.93658779787161 129.49181201839733 111.92833686944314 H 0.0 **** 0.06
29111 C 97.42121215663013 107.33586885191065 115.29445336570585 C 0.0 **** -0.24
29112 H 96.86415921031251 108.11157629737698 115.82043290547881 H 0.0 **** 0.06
29113 H 97.83700330552306 106.63377404733015 116.01821863319441 H 0.0 **** 0.06
29114 H 98.22909557765755 107.79208881140592 114.7233464289743 H 0.0 **** 0.06
29115 H 96.75119039532925 106.80475366974386 114.61670702806076 H 0.0 **** 0.06
29116 C 100.8712455001293 90.49502033505613 91.72509341612442 C 0.0 **** -0.24
29117 H 101.0453866323455 91.279451847355 92.46083690079524 H 0.0 **** 0.06
29118 H 101.82155516548943 90.03943776560143 91.4483001995124 H 0.0 **** 0.06
29119 H 100.40222433019267 90.924705004213 90.83900945321665 H 0.0 **** 0.06
29120 H 100.21509142043516 89.73652533993277 92.1510131135039 H 0.0 **** 0.06
29121 C 35.01864182592075 6.404313337428846 72.99216076939285 C 0.0 **** -0.24
29122 H 34.423526640061795 5.531223529633166 72.7245125456522 H 0.0 **** 0.06
29123 H 35.582358643626094 6.740931966764094 72.12169896317909 H 0.0 **** 0.06
29124 H 35.70978693734949 6.141249541691593 73.79356541228901 H 0.0 **** 0.06
29125 H 34.359376710180044 7.2030844281076725 73.32995456298636 H 0.0 **** 0.06
29126 C 67.38414949135861 88.98312311362855 7.858985998984139 C 0.0 **** -0.24
29127 H 66.97293459503797 88.0076633773703 7.600132652685005 H 0.0 **** 0.06
29128 H 68.05315335738757 88.87970633556378 8.713762175371528 H 0.0 **** 0.06
29129 H 66.57109903308262 89.6635251532077 8.113963522195007 H 0.0 **** 0.06
29130 H 67.9373175360544 89.38119800840244 7.009293190424501 H 0.0 **** 0.06
29131 C 1.6457639079894193 49.320607513721825 112.6701979412349 C 0.0 **** -0.24
29132 H 0.771308522456934 49.37248960971323 112.021945314465 H 0.0 **** 0.06
29133 H 2.3155652176783406 50.150504764837706 112.4431422798227 H 0.0 **** 0.06
29134 H 2.165998958699106 48.377579084452066 112.50343966156322 H 0.0 **** 0.06
29135 H 1.3301829331233535 49.381856595884415 113.71226450908841 H 0.0 **** 0.06
29136 C 50.22543735668418 57.807058166020184 18.759105463770062 C 0.0 **** -0.24
29137 H 49.38932950237805 57.9420037677675 19.445007636372694 H 0.0 **** 0.06
29138 H 50.08436455589782 58.443818336869754 17.88506800077962 H 0.0 **** 0.06
29139 H 50.273130463029105 56.764615493544426 18.444807688039504 H 0.0 **** 0.06
29140 H 51.15400495162652 58.07845683004156 19.26022859818672 H 0.0 **** 0.06
29141 C 19.849422732157528 92.80217411912446 37.79156715700968 C 0.0 **** -0.24
29142 H 19.54761408152234 93.10613301490693 38.79399471600989 H 0.0 **** 0.06
29143 H 20.412585155800777 91.87089140609473 37.848330155395075 H 0.0 **** 0.06
29144 H 20.474805633246767 93.57823585760613 37.35030433968021 H 0.0 **** 0.06
29145 H 18.96252184884596 92.65513224706643 37.17539918631884 H 0.0 **** 0.06
29146 C 71.13570546659135 48.34833962223868 8.1282816092565 C 0.0 **** -0.24
29147 H 71.49213855545057 47.32713824800213 8.261336665487736 H 0.0 **** 0.06
29148 H 70.10932425818115 48.42440131016885 8.488804516786995 H 0.0 **** 0.06
29149 H 71.16874170526549 48.60944274430716 7.069851490312942 H 0.0 **** 0.06
29150 H 71.77120556704185 49.031638049284126 8.691273021251199 H 0.0 **** 0.06
29151 C 124.74867336845273 8.251939130767283 27.205446803902205 C 0.0 **** -0.24
29152 H 123.9162789422777 7.880352157705062 26.607618128958478 H 0.0 **** 0.06
29153 H 124.6572325135702 7.878282014340471 28.226122311475706 H 0.0 **** 0.06
29154 H 124.732845055707 9.341583459134654 27.214619973349045 H 0.0 **** 0.06
29155 H 125.68772686934403 7.905207115859184 26.773863771940057 H 0.0 **** 0.06
29156 C 26.405256149198024 45.85460830676624 111.15942078827658 C 0.0 **** -0.24
29157 H 25.635323977342864 45.10089776955584 111.00011528604446 H 0.0 **** 0.06
29158 H 26.108303490588632 46.509680310486345 111.97977460218587 H 0.0 **** 0.06
29159 H 26.530555624526748 46.44401696522024 110.25118186664511 H 0.0 **** 0.06
29160 H 27.34727909131626 45.3655919396501 111.40826463346528 H 0.0 **** 0.06
29161 C 61.688715789632425 75.10306772713888 59.9086162254537 C 0.0 **** -0.24
29162 H 61.550306388493965 74.98991069977248 60.98327464772011 H 0.0 **** 0.06
29163 H 61.26756130209222 76.05700072553562 59.587285644466235 H 0.0 **** 0.06
29164 H 61.183574819559425 74.28978040842227 59.389169680022604 H 0.0 **** 0.06
29165 H 62.75304967268232 75.07852330335469 59.67517583655439 H 0.0 **** 0.06
29166 C 84.91583430137177 21.317051700713307 63.494935043565874 C 0.0 **** -0.24
29167 H 85.20884176542121 20.93927624195632 62.51570893995142 H 0.0 **** 0.06
29168 H 85.27158140162551 22.341608460416438 63.60898758569563 H 0.0 **** 0.06
29169 H 85.3531703068561 20.691652007139794 64.2729561801477 H 0.0 **** 0.06
29170 H 83.82891571269761 21.297784588818644 63.581168975522786 H 0.0 **** 0.06
29171 C 89.63340190348137 3.6451506776397196 69.88224714441048 C 0.0 **** -0.24
29172 H 89.9730840668104 2.69578166299749 70.29689760031917 H 0.0 **** 0.06
29173 H 90.22527281437064 4.457724808088187 70.30325612547469 H 0.0 **** 0.06
29174 H 88.58251462113287 3.7940287469113514 70.13060518430615 H 0.0 **** 0.06
29175 H 89.75223651423258 3.630938483594491 68.7986965754794 H 0.0 **** 0.06
29176 C 91.58517903563217 118.96323990379835 9.756906292107374 C 0.0 **** -0.24
29177 H 92.03503168573909 117.97115552618615 9.795914644385846 H 0.0 **** 0.06
29178 H 91.88199884662707 119.53163961252042 10.638849198982086 H 0.0 **** 0.06
29179 H 90.49936925343779 118.86934945348469 9.733090654463183 H 0.0 **** 0.06
29180 H 91.92555681935141 119.4802698672197 8.859365492189966 H 0.0 **** 0.06
29181 C 79.23622571689572 122.13128073721381 45.62697813074241 C 0.0 **** -0.24
29182 H 79.34834284964651 122.53021820040891 46.63519741524707 H 0.0 **** 0.06
29183 H 79.45896125387867 122.91249510684605 44.9008917699825 H 0.0 **** 0.06
29184 H 78.21248182906635 121.7837894700244 45.48585841077982 H 0.0 **** 0.06
29185 H 79.92605654784614 121.29828282107042 45.48796582727382 H 0.0 **** 0.06
29186 C 15.094677623331496 122.38574144373726 63.73827005954281 C 0.0 **** -0.24
29187 H 14.869347145248039 123.3091120263216 64.27113530464231 H 0.0 **** 0.06
29188 H 14.271969265968803 121.68120136246495 63.86738552194144 H 0.0 **** 0.06
29189 H 16.010950178494127 121.95097918470447 64.13567006306202 H 0.0 **** 0.06
29190 H 15.225323276330638 122.60141569885946 62.67806594170045 H 0.0 **** 0.06
29191 C 4.341388169909337 125.71571425112323 35.57691078857273 C 0.0 **** -0.24
29192 H 4.668429353425751 126.74503025308856 35.72909549949025 H 0.0 **** 0.06
29193 H 3.3303057042315345 125.71249707345275 35.1689850593874 H 0.0 **** 0.06
29194 H 4.351205253453344 125.18763824976384 36.53028103071878 H 0.0 **** 0.06
29195 H 5.0167534531424 125.22021505151993 34.87985575871314 H 0.0 **** 0.06
29196 C 42.278529923553094 90.52797400920346 3.9348829155315173 C 0.0 **** -0.24
29197 H 41.4167645940187 90.09021147350029 3.431082411237327 H 0.0 **** 0.06
29198 H 42.71088213459839 89.79616312949707 4.6178147676397145 H 0.0 **** 0.06
29199 H 41.96155154837092 91.40666350688912 4.497168413646932 H 0.0 **** 0.06
29200 H 43.02286118890123 90.81924371531362 3.1942451115284882 H 0.0 **** 0.06
29201 C 76.40864427764717 19.163531465204642 122.39061439530165 C 0.0 **** -0.24
29202 H 77.18878175623917 18.406891148717023 122.30461184464804 H 0.0 **** 0.06
29203 H 76.19966151757575 19.35100777442989 123.44389371039941 H 0.0 **** 0.06
29204 H 75.5034123746496 18.809728005013568 121.8971381698066 H 0.0 **** 0.06
29205 H 76.74436534904646 20.08541630316165 121.91645921152177 H 0.0 **** 0.06
29206 C 123.23291416673254 58.09592966399849 76.26869204051611 C 0.0 **** -0.24
29207 H 123.09989969720777 58.487174174711484 77.27653640577955 H 0.0 **** 0.06
29208 H 123.56710673557403 57.05917888308109 76.32265211980369 H 0.0 **** 0.06
29209 H 123.97959825133834 58.69129165213745 75.74305484541189 H 0.0 **** 0.06
29210 H 122.28555860307515 58.14493410709433 75.73185829656121 H 0.0 **** 0.06
29211 C 121.03889904320177 125.56842758954689 25.554402148394757 C 0.0 **** -0.24
29212 H 121.99460884483638 126.09422774460741 25.559455926969903 H 0.0 **** 0.06
29213 H 121.17913526180735 124.56503834241127 25.15390218377415 H 0.0 **** 0.06
29214 H 120.32850934400705 126.11328032862782 24.932810299987366 H 0.0 **** 0.06
29215 H 120.65509186492193 125.50335506474086 26.572903071286007 H 0.0 **** 0.06
29216 C 57.450010974891995 79.24082146770591 68.6856462708266 C 0.0 **** -0.24
29217 H 58.32219709662847 78.99350766106667 69.28977841662532 H 0.0 **** 0.06
29218 H 56.546867035611896 79.11170774838189 69.28171431728052 H 0.0 **** 0.06
29219 H 57.41040059752392 78.58168458903076 67.8177861871296 H 0.0 **** 0.06
29220 H 57.521170834272496 80.27660659749418 68.35253074656723 H 0.0 **** 0.06
29221 C 127.57470099725376 119.46073849765088 64.28769919112281 C 0.0 **** -0.24
29222 H 127.38873308145178 120.53093935392624 64.3841232193443 H 0.0 **** 0.06
29223 H 126.6412057892493 118.95053684498649 64.05091147548231 H 0.0 **** 0.06
29224 H 127.97221470750803 119.07580973533403 65.22607283264404 H 0.0 **** 0.06
29225 H 128.29665649075318 119.28871153231991 63.488830297797875 H 0.0 **** 0.06
29226 C 24.723374510065895 68.41756342033531 101.58529334916022 C 0.0 **** -0.24
29227 H 25.200842055777002 69.15633105079647 102.229593468573 H 0.0 **** 0.06
29228 H 23.731064085420712 68.77021432537012 101.30319787072824 H 0.0 **** 0.06
29229 H 24.635568719800318 67.47149665996594 102.1202843268108 H 0.0 **** 0.06
29230 H 25.32660610678309 68.27393563913537 100.68939708428945 H 0.0 **** 0.06
29231 C 99.97926916795967 105.31815866442355 94.26239677938153 C 0.0 **** -0.24
29232 H 100.07805622836571 104.40303539087768 94.8462691809772 H 0.0 **** 0.06
29233 H 100.94167340588433 105.8290723140652 94.2243727272186 H 0.0 **** 0.06
29234 H 99.24077206410101 105.96901758792873 94.73015648446986 H 0.0 **** 0.06
29235 H 99.65801458922363 105.07143672505947 93.25076927167686 H 0.0 **** 0.06
29236 C 109.13672236413467 25.44961963738924 1.2499622776829256 C 0.0 **** -0.24
29237 H 109.04486625329744 26.455526592771655 1.659481649033637 H 0.0 **** 0.06
29238 H 109.75711185851475 25.478239059243606 0.35440756007272967 H 0.0 **** 0.06
29239 H 108.14714809093189 25.070743567483056 0.9956020653753797 H 0.0 **** 0.06
29240 H 109.59701094786422 24.79628768198124 1.9906019998101954 H 0.0 **** 0.06
29241 C 39.44275928733634 109.67574840141498 3.109601857595351 C 0.0 **** -0.24
29242 H 38.369235887414966 109.55906848796805 2.959639186856691 H 0.0 **** 0.06
29243 H 39.65842089795496 109.71921613607019 4.177398243893606 H 0.0 **** 0.06
29244 H 39.777967226490894 110.59711852403511 2.6332446282260094 H 0.0 **** 0.06
29245 H 39.96565906505699 108.82711942828853 2.667278195521135 H 0.0 **** 0.06
29246 C 101.73741256435433 40.156017274760416 25.899571243760306 C 0.0 **** -0.24
29247 H 102.32128003552512 39.272898308042045 26.157831001733825 H 0.0 **** 0.06
29248 H 101.10265439806784 39.93433027968493 25.041808805573623 H 0.0 **** 0.06
29249 H 102.41025400831904 40.97650592623218 25.651397513380516 H 0.0 **** 0.06
29250 H 101.11537726728108 40.44099467089879 26.74849555267133 H 0.0 **** 0.06
29251 C 22.563200968340965 56.999576155469384 30.156978230164242 C 0.0 **** -0.24
29252 H 22.683756843383918 58.0791031185087 30.251763941844644 H 0.0 **** 0.06
29253 H 23.535420704285883 56.538804247585944 29.986865292009924 H 0.0 **** 0.06
29254 H 21.904173648000864 56.78148191503081 29.315481665070905 H 0.0 **** 0.06
29255 H 22.126531164042575 56.601402085642775 31.072291455952097 H 0.0 **** 0.06
29256 C 63.74354625863532 43.19307986408494 105.21570692849514 C 0.0 **** -0.24
29257 H 63.74161027908315 42.91546256447652 104.1614240519734 H 0.0 **** 0.06
29258 H 64.75093715690987 43.48747145079512 105.51155603405965 H 0.0 **** 0.06
29259 H 63.422298287985896 42.34245337376412 105.81558833529135 H 0.0 **** 0.06
29260 H 63.06066209858368 44.028175454721826 105.37261473944199 H 0.0 **** 0.06
29261 C 46.941136523634405 8.130499758227955 4.087994283677531 C 0.0 **** -0.24
29262 H 47.59538987482733 7.660546810317612 4.821975361431669 H 0.0 **** 0.06
29263 H 46.45711367847058 8.998701995875734 4.5359644441670355 H 0.0 **** 0.06
29264 H 46.18365928005137 7.415919764870324 3.7678020570242836 H 0.0 **** 0.06
29265 H 47.52960592284879 8.445772462773078 3.2268564840225764 H 0.0 **** 0.06
29266 C 99.72888852270243 110.24751525885979 45.899172391549484 C 0.0 **** -0.24
29267 H 100.32599525947228 109.34200755532656 46.01340852108967 H 0.0 **** 0.06
29268 H 98.73072047566195 109.98149970202779 45.549349836411324 H 0.0 **** 0.06
29269 H 100.20496260643004 110.90725599617588 45.175068123298956 H 0.0 **** 0.06
29270 H 99.65390637556393 110.75663922149121 46.86084594544667 H 0.0 **** 0.06
29271 C 102.16227030433762 41.96881999300513 110.35408286228915 C 0.0 **** -0.24
29272 H 102.23138595317158 42.606245858630984 109.47195145118246 H 0.0 **** 0.06
29273 H 102.5749400727328 42.49381720259544 111.21528552895182 H 0.0 **** 0.06
29274 H 102.72435367810019 41.05126475795072 110.18276418126567 H 0.0 **** 0.06
29275 H 101.11734860897715 41.724832680490806 110.54385712964464 H 0.0 **** 0.06
29276 C 78.24529505202905 74.23679468689332 34.85824139892253 C 0.0 **** -0.24
29277 H 77.22398219412783 74.28075858437441 34.480562081790254 H 0.0 **** 0.06
29278 H 78.28233936983219 74.6751057302769 35.85574410051527 H 0.0 **** 0.06
29279 H 78.9031271018309 74.7939405011737 34.191607335189104 H 0.0 **** 0.06
29280 H 78.57089426784994 73.19683771704007 34.904944834597046 H 0.0 **** 0.06
29281 C 121.82486999712869 83.81973914747167 8.702052442449315 C 0.0 **** -0.24
29282 H 122.15857779619226 83.89844348132239 9.736228512984923 H 0.0 **** 0.06
29283 H 122.32988994765519 82.98027864892532 8.22106953486707 H 0.0 **** 0.06
29284 H 122.06443174689329 84.74084988358206 8.171346671903564 H 0.0 **** 0.06
29285 H 120.74754610971672 83.65722997208655 8.67891266135203 H 0.0 **** 0.06
29286 C 26.049479464476462 43.954808581659 76.72328055056647 C 0.0 **** -0.24
29287 H 26.836874991110733 44.41235770558766 77.322073120575 H 0.0 **** 0.06
29288 H 26.341291164285508 42.940483160948965 76.45249779745697 H 0.0 **** 0.06
29289 H 25.89414302090165 44.54259463169517 75.81875050617309 H 0.0 **** 0.06
29290 H 25.12515548457617 43.92673741997512 77.30020052244363 H 0.0 **** 0.06
29291 C 63.755042842272104 118.28607463861215 75.90295489087026 C 0.0 **** -0.24
29292 H 64.58271616211684 117.76865566446736 76.38721815010939 H 0.0 **** 0.06
29293 H 62.85344355893767 117.67808489943934 75.97632837787677 H 0.0 **** 0.06
29294 H 63.99613241307205 118.4542444694431 74.85352305664742 H 0.0 **** 0.06
29295 H 63.58839595100082 119.24435651254635 76.3955532753518 H 0.0 **** 0.06
29296 C 11.349689680029481 25.133920779764537 47.5315593967907 C 0.0 **** -0.24
29297 H 11.827789145716721 24.160538633390786 47.42850364646863 H 0.0 **** 0.06
29298 H 12.077343428595185 25.859616084558297 47.89721758761155 H 0.0 **** 0.06
29299 H 10.523245473661877 25.060894393137033 48.23870337552614 H 0.0 **** 0.06
29300 H 10.970665848464368 25.457065418693475 46.561898136602764 H 0.0 **** 0.06
29301 C 110.14838014873084 117.598646976452 57.21165709956037 C 0.0 **** -0.24
29302 H 110.42136721040029 117.65430070327858 58.2654180746062 H 0.0 **** 0.06
29303 H 109.14824103552162 118.01025699426373 57.07383674440675 H 0.0 **** 0.06
29304 H 110.16208410423994 116.5580826044017 56.887551478654885 H 0.0 **** 0.06
29305 H 110.8628536951849 118.17361182928553 56.62129829191302 H 0.0 **** 0.06
29306 C 114.0210858941377 66.8158391402805 92.57037107498408 C 0.0 **** -0.24
29307 H 113.6223790856039 66.55192510673496 91.5910372649085 H 0.0 **** 0.06
29308 H 115.05237548829324 67.15348068310007 92.46474690373131 H 0.0 **** 0.06
29309 H 113.98893660326014 65.94354654194748 93.22299386128986 H 0.0 **** 0.06
29310 H 113.41991548486483 67.61564361862358 93.00441540748662 H 0.0 **** 0.06
29311 C 74.67421941327473 24.58055234377406 55.25103365808246 C 0.0 **** -0.24
29312 H 75.14908846121864 23.728358729065576 55.73640450207472 H 0.0 **** 0.06
29313 H 74.55176104447472 24.371516329834947 54.1879050633263 H 0.0 **** 0.06
29314 H 75.29800325279001 25.465095242578002 55.37890092722489 H 0.0 **** 0.06
29315 H 73.6971690415933 24.756728998697895 55.70101013464341 H 0.0 **** 0.06
29316 C 64.19583424492632 78.29908436321614 91.29398622612439 C 0.0 **** -0.24
29317 H 63.33698145681231 77.89315905797667 90.75992164384405 H 0.0 **** 0.06
29318 H 64.79175297844475 77.48031966776529 91.69797847834917 H 0.0 **** 0.06
29319 H 63.8487586187469 78.93323440721707 92.11017109375638 H 0.0 **** 0.06
29320 H 64.80360083969939 78.88874503166596 90.6083161284584 H 0.0 **** 0.06
29321 C 113.70981521725291 104.57697028750601 80.69589656403286 C 0.0 **** -0.24
29322 H 113.99351263662733 105.45370172061462 80.1144249908001 H 0.0 **** 0.06
29323 H 112.62579457201169 104.5551836358261 80.81374446726949 H 0.0 **** 0.06
29324 H 114.18180210995276 104.62401593134285 81.67665467962152 H 0.0 **** 0.06
29325 H 114.0372816076425 103.67617949111789 80.1768116247037 H 0.0 **** 0.06
29326 C 8.101369836006967 108.32239430782718 3.2082660648052297 C 0.0 **** -0.24
29327 H 8.965818883355098 107.82154526077149 3.6447927861228493 H 0.0 **** 0.06
29328 H 7.623367752993602 107.6585410846915 2.4872817189690863 H 0.0 **** 0.06
29329 H 8.424986221237276 109.23413272057002 2.705383359396734 H 0.0 **** 0.06
29330 H 7.391588414291078 108.57464699680764 3.996250453772518 H 0.0 **** 0.06
29331 C 4.192195598156474 37.27908275132293 5.327641109079327 C 0.0 **** -0.24
29332 H 4.018837828197206 38.196657656967545 4.765488246646953 H 0.0 **** 0.06
29333 H 4.92733285377804 36.666312660982385 4.804066271940773 H 0.0 **** 0.06
29334 H 3.256650030576111 36.72689621153624 5.418690574206966 H 0.0 **** 0.06
29335 H 4.567130875217657 37.52687187255712 6.3211080721033035 H 0.0 **** 0.06
29336 C 103.5849623343833 124.01949412845937 67.07923661405842 C 0.0 **** -0.24
29337 H 103.8481619785915 124.91973339217714 66.52300038635855 H 0.0 **** 0.06
29338 H 104.4726387841017 123.62932403175813 67.57733931173452 H 0.0 **** 0.06
29339 H 103.19461389460302 123.26928915800056 66.39225261649749 H 0.0 **** 0.06
29340 H 102.82628501140984 124.26097417993822 67.82347686890242 H 0.0 **** 0.06
29341 C 127.84166287307573 19.284279817368713 120.63069786884998 C 0.0 **** -0.24
29342 H 126.99585145732914 19.72029447482217 121.16342369351773 H 0.0 **** 0.06
29343 H 128.33428491772094 18.55169571310418 121.27042402049716 H 0.0 **** 0.06
29344 H 128.54777673950497 20.07050980942782 120.36619267157772 H 0.0 **** 0.06
29345 H 127.48580851595653 18.794523184588712 119.7239373598275 H 0.0 **** 0.06
29346 C 52.475422297351784 33.951228142773175 9.469874971433569 C 0.0 **** -0.24
29347 H 51.96352491717367 34.85188681449816 9.13177222475889 H 0.0 **** 0.06
29348 H 52.981265524017346 34.15362067983514 10.414111371140962 H 0.0 **** 0.06
29349 H 53.20892630212346 33.64777362637872 8.722878517695221 H 0.0 **** 0.06
29350 H 51.74797244609236 33.15163145038093 9.610737772138862 H 0.0 **** 0.06
29351 C 67.58135756304495 114.18081108602178 113.85793408554724 C 0.0 **** -0.24
29352 H 68.05854084582961 113.4923761096195 114.55477109564953 H 0.0 **** 0.06
29353 H 67.80909179061257 113.8796348522144 112.83509171981109 H 0.0 **** 0.06
29354 H 67.95471507603645 115.19054042712412 114.03161871796351 H 0.0 **** 0.06
29355 H 66.50159421550933 114.16192151742564 114.01077992739988 H 0.0 **** 0.06
29356 C 103.61417088129444 15.793314308324327 4.020098428460436 C 0.0 **** -0.24
29357 H 102.78128490846403 15.316618385270218 4.53663439332065 H 0.0 **** 0.06
29358 H 103.62106931950086 16.85951835050193 4.249754485070287 H 0.0 **** 0.06
29359 H 103.50210406775128 15.65411505841817 2.945316119678992 H 0.0 **** 0.06
29360 H 104.55038090996983 15.343821373025861 4.349654643925454 H 0.0 **** 0.06
29361 C 36.090605917206744 25.68937037291316 109.40637357059666 C 0.0 **** -0.24
29362 H 37.01861187450106 26.247227731905923 109.5294895703797 H 0.0 **** 0.06
29363 H 35.287553032016376 26.198884409036935 109.939753388387 H 0.0 **** 0.06
29364 H 36.214320809351705 24.684123886415392 109.807449021514 H 0.0 **** 0.06
29365 H 35.84184867084775 25.62861550161807 108.3461348070303 H 0.0 **** 0.06
29366 C 6.446024886309051 63.83218148410121 17.893495877883055 C 0.0 **** -0.24
29367 H 6.700178283308404 63.42820708603293 18.873130080481815 H 0.0 **** 0.06
29368 H 5.4589703636258164 63.472508937300105 17.597428864050052 H 0.0 **** 0.06
29369 H 7.185544757509891 63.50642372845165 17.162546037447875 H 0.0 **** 0.06
29370 H 6.437127265283962 64.92108638675131 17.94162503086165 H 0.0 **** 0.06
29371 C 59.67113827854129 16.717150618860444 50.03853638129053 C 0.0 **** -0.24
29372 H 60.23682574256176 16.653843004246085 49.10935110962694 H 0.0 **** 0.06
29373 H 60.26058572990736 16.294508084657025 50.85193999421543 H 0.0 **** 0.06
29374 H 58.74060510754998 16.159120828696018 49.93515730422499 H 0.0 **** 0.06
29375 H 59.44598683934356 17.761417090095506 50.25642595747033 H 0.0 **** 0.06
29376 C 76.02325665824216 125.7477201743427 8.53271587658218 C 0.0 **** -0.24
29377 H 76.32113745440196 125.84197341868958 9.576951876570416 H 0.0 **** 0.06
29378 H 75.30731745608156 124.9320886053469 8.432010045304786 H 0.0 **** 0.06
29379 H 76.90239528351145 125.53741099787283 7.92283240265105 H 0.0 **** 0.06
29380 H 75.56474735275444 126.67799146349242 8.200613643336553 H 0.0 **** 0.06
29381 C 86.81336251550059 106.87021336520345 122.78892287783397 C 0.0 **** -0.24
29382 H 86.00510006163883 107.23673427641788 122.15665263720045 H 0.0 **** 0.06
29383 H 87.74785524481291 107.35115641848492 122.49688060865458 H 0.0 **** 0.06
29384 H 86.90729828247875 105.79148745781137 122.66893584051506 H 0.0 **** 0.06
29385 H 86.59392250420015 107.10314794956332 123.82995502039577 H 0.0 **** 0.06
29386 C 2.2681155833258515 78.77060578863893 50.865307450543625 C 0.0 **** -0.24
29387 H 2.5963265879080097 77.86169636479408 50.36086352248273 H 0.0 **** 0.06
29388 H 2.9414382284864047 78.98773231119381 51.69556358882835 H 0.0 **** 0.06
29389 H 1.256574683312067 78.6301209733603 51.24572888765171 H 0.0 **** 0.06
29390 H 2.2790357909119052 79.6018338692488 50.160518064203245 H 0.0 **** 0.06
29391 C 76.22143988750136 90.82035877951571 7.64398408306954 C 0.0 **** -0.24
29392 H 75.35864905920081 90.16345876193795 7.531259406043986 H 0.0 **** 0.06
29393 H 76.78855301252676 90.8380307667335 6.712772007900526 H 0.0 **** 0.06
29394 H 76.85525398134936 90.45244159594286 8.449974177207935 H 0.0 **** 0.06
29395 H 75.88091049744446 91.82916105575771 7.881203966390956 H 0.0 **** 0.06
29396 C 125.66592346980899 31.069290158942295 90.85973734999008 C 0.0 **** -0.24
29397 H 126.23126468814465 31.922148698819555 91.23560048438364 H 0.0 **** 0.06
29398 H 125.17335502271922 30.564922482695977 91.69153845996487 H 0.0 **** 0.06
29399 H 126.34338020846167 30.37469902402468 90.36342799966748 H 0.0 **** 0.06
29400 H 124.91590637946776 31.416090497088845 90.14959278491679 H 0.0 **** 0.06
29401 C 35.1360057541403 75.02370203263308 122.84776740627014 C 0.0 **** -0.24
29402 H 34.94253276844164 76.05373239571936 123.14744912113743 H 0.0 **** 0.06
29403 H 35.64262306494244 74.49937480576249 123.65816258234446 H 0.0 **** 0.06
29404 H 35.76714127171286 75.01629909317646 121.95955764506945 H 0.0 **** 0.06
29405 H 34.19147423515304 74.52630085917276 122.62696259853348 H 0.0 **** 0.06
29406 C 38.0668912547738 37.78844699004435 63.51900515115955 C 0.0 **** -0.24
29407 H 38.004600040646274 37.03032715681121 64.29862781604122 H 0.0 **** 0.06
29408 H 39.09628144140318 38.13580176441218 63.4310451013984 H 0.0 **** 0.06
29409 H 37.420780976064705 38.628247495619576 63.776318451879845 H 0.0 **** 0.06
29410 H 37.74593957688824 37.3606540939989 62.569354839613354 H 0.0 **** 0.06
29411 C 27.140155842367555 13.8083680753071 77.4848528353034 C 0.0 **** -0.24
29412 H 28.173176108236447 13.662370720973769 77.17087463161253 H 0.0 **** 0.06
29413 H 26.543662008654884 12.947890090988011 77.18242236147422 H 0.0 **** 0.06
29414 H 26.74228910559433 14.709046000814908 77.01726668614114 H 0.0 **** 0.06
29415 H 27.101496146984466 13.914165488451772 78.56884766198577 H 0.0 **** 0.06
29416 C 6.890844904515177 58.930494997685685 2.668665687348259 C 0.0 **** -0.24
29417 H 7.526505117574658 58.12850422045908 3.0458625011246276 H 0.0 **** 0.06
29418 H 7.512414725938413 59.77537759826488 2.3693649848344656 H 0.0 **** 0.06
29419 H 6.201089244109511 59.24499144355825 3.452297373998256 H 0.0 **** 0.06
29420 H 6.325633703846165 58.57121382542829 1.8086530064864057 H 0.0 **** 0.06
29421 C 99.43578047707888 38.80298861434693 95.53880225088906 C 0.0 **** -0.24
29422 H 100.47027409494984 38.88402356215542 95.20578613147589 H 0.0 **** 0.06
29423 H 99.08766413733554 39.776596609649715 95.88493661803719 H 0.0 **** 0.06
29424 H 99.3733474052957 38.08260513075271 96.35558026394565 H 0.0 **** 0.06
29425 H 98.81198280313981 38.467425019089006 94.71071652536884 H 0.0 **** 0.06
29426 C 116.47766953165839 53.33460171633487 91.07440306133732 C 0.0 **** -0.24
29427 H 115.91453173005871 54.052084347061 91.67142062699398 H 0.0 **** 0.06
29428 H 117.54195897995928 53.44972381457649 91.2769722610459 H 0.0 **** 0.06
29429 H 116.28692209227253 53.513253851584125 90.01608065663413 H 0.0 **** 0.06
29430 H 116.16536488662629 52.32216697712107 91.33317372526778 H 0.0 **** 0.06
29431 C 107.52745763333115 40.34242680619286 122.67836373499676 C 0.0 **** -0.24
29432 H 106.53195248378717 39.96784138440535 122.44317094601683 H 0.0 **** 0.06
29433 H 107.44269359566835 41.288161155289174 123.21545886489602 H 0.0 **** 0.06
29434 H 108.08518066675418 40.49799278316755 121.75465883843454 H 0.0 **** 0.06
29435 H 108.05145969886354 39.616983947914946 123.30128990075225 H 0.0 **** 0.06
29436 C 106.82004788489138 73.61864508785692 28.16019797242626 C 0.0 **** -0.24
29437 H 106.0038095456791 73.83916777707614 28.848683433936657 H 0.0 **** 0.06
29438 H 107.04644824961949 74.50537902392568 27.56841570504102 H 0.0 **** 0.06
29439 H 106.52508501939954 72.80537923516337 27.496636321229232 H 0.0 **** 0.06
29440 H 107.70282981319315 73.3233524217338 28.726577467509316 H 0.0 **** 0.06
29441 C 121.59726476885058 10.93970297078113 19.026526535702757 C 0.0 **** -0.24
29442 H 122.1435982662386 10.019502697323627 18.819827167550443 H 0.0 **** 0.06
29443 H 122.28621147416354 11.695263578939894 19.4052205025192 H 0.0 **** 0.06
29444 H 120.82588653408692 10.744270993828668 19.772125951488775 H 0.0 **** 0.06
29445 H 121.13112939233253 11.299879127034416 18.108897269589086 H 0.0 **** 0.06
29446 C 6.517944159100978 28.793433252435392 86.10577547821093 C 0.0 **** -0.24
29447 H 6.545146304003211 27.879863315045668 85.51307201014616 H 0.0 **** 0.06
29448 H 7.534626501297552 29.07854124813639 86.37916165777541 H 0.0 **** 0.06
29449 H 5.933143137871639 28.622954824441166 87.00896110027726 H 0.0 **** 0.06
29450 H 6.061245460034769 29.592664081293634 85.52238553408591 H 0.0 **** 0.06
29451 C 98.3532624604359 39.2140019193599 67.54620328378152 C 0.0 **** -0.24
29452 H 97.32613875854692 39.03594630090316 67.23152180413796 H 0.0 **** 0.06
29453 H 98.44008731152888 40.22324952752703 67.9486771095199 H 0.0 **** 0.06
29454 H 99.01956218622166 39.10455137038238 66.69119646561039 H 0.0 **** 0.06
29455 H 98.62786615070303 38.49168450185692 68.31572059916655 H 0.0 **** 0.06
29456 C 72.57025934228454 98.62008917246962 86.92669424458784 C 0.0 **** -0.24
29457 H 72.8328445243011 97.56795816559024 87.032928827601 H 0.0 **** 0.06
29458 H 72.67075685111644 98.9158068985715 85.88190727862667 H 0.0 **** 0.06
29459 H 73.23772091429663 99.22481565911752 87.54088999067787 H 0.0 **** 0.06
29460 H 71.54109871499293 98.77275331764669 87.24959121802976 H 0.0 **** 0.06
29461 C 59.830349775759075 98.3520718208228 67.4595384276424 C 0.0 **** -0.24
29462 H 59.16691452253491 97.54911652108979 67.78180843371355 H 0.0 **** 0.06
29463 H 59.268308788692664 99.06775412569675 66.85882777840388 H 0.0 **** 0.06
29464 H 60.64304269231475 97.93554620159051 66.86533640637288 H 0.0 **** 0.06
29465 H 60.24203198315355 98.85589479815985 68.33436907858093 H 0.0 **** 0.06
29466 C 86.47713968638038 66.42357173724474 3.50019658988262 C 0.0 **** -0.24
29467 H 85.71589743074222 66.87844513565466 2.865700775359173 H 0.0 **** 0.06
29468 H 86.41264130733515 66.84507132831419 4.503035305823502 H 0.0 **** 0.06
29469 H 87.46367107770988 66.62341487883356 3.0836297592358015 H 0.0 **** 0.06
29470 H 86.3129524148464 65.34691188217556 3.546914670874873 H 0.0 **** 0.06
29471 C 105.6592838846766 83.29268683957724 60.1452252452776 C 0.0 **** -0.24
29472 H 104.88044416137501 82.9746174945466 59.45206433031839 H 0.0 **** 0.06
29473 H 106.13865452178203 84.19412879952912 59.76360416275023 H 0.0 **** 0.06
29474 H 106.4019799750501 82.50131525471554 60.24516016278102 H 0.0 **** 0.06
29475 H 105.21613125222598 83.50057609766466 61.119081119880974 H 0.0 **** 0.06
29476 C 57.96441212987382 106.14548452626221 20.62607514565852 C 0.0 **** -0.24
29477 H 58.26434631808441 105.92198129144256 21.65043998297 H 0.0 **** 0.06
29478 H 57.49917341704948 107.13025272514734 20.59069197626419 H 0.0 **** 0.06
29479 H 57.251563355699474 105.3943389364043 20.284633429739728 H 0.0 **** 0.06
29480 H 58.84209994327128 106.13305889592294 19.980105210730194 H 0.0 **** 0.06
29481 C 61.08483147536232 92.75062810750933 73.60357037573536 C 0.0 **** -0.24
29482 H 60.03989408032665 92.73545395572239 73.29067556445423 H 0.0 **** 0.06
29483 H 61.139914151853745 92.66339684557175 74.68856072641834 H 0.0 **** 0.06
29484 H 61.54375137679601 93.68751330486276 73.28946520174146 H 0.0 **** 0.06
29485 H 61.61257598145035 91.91502392793046 73.14398050020978 H 0.0 **** 0.06
29486 C 20.73303795312131 5.717473667401418 64.90134566162155 C 0.0 **** -0.24
29487 H 21.262863818821813 5.908211408700328 63.96810607190534 H 0.0 **** 0.06
29488 H 21.00097400790264 4.729743414400051 65.2765678525174 H 0.0 **** 0.06
29489 H 19.657913191537148 5.758749497711065 64.72303246893324 H 0.0 **** 0.06
29490 H 21.00930881431293 6.4734763909019115 65.63636250747959 H 0.0 **** 0.06
29491 C 100.62358739959821 38.914386116922486 98.92350029725736 C 0.0 **** -0.24
29492 H 99.97702520566627 38.04128149793962 99.0047964202463 H 0.0 **** 0.06
29493 H 100.86339136189731 39.09326625314736 97.8752715834114 H 0.0 **** 0.06
29494 H 101.54356236325351 38.73753738257348 99.48216759770565 H 0.0 **** 0.06
29495 H 100.11221390220689 39.784405088014665 99.33388491656422 H 0.0 **** 0.06
29496 C 60.120371560017986 49.92319024228951 45.62018385447311 C 0.0 **** -0.24
29497 H 60.507196178029176 50.111220816019824 44.61857280516085 H 0.0 **** 0.06
29498 H 60.298111319908 48.88097002577351 45.88770981474096 H 0.0 **** 0.06
29499 H 59.04972209666482 50.12598875636476 45.63944369334564 H 0.0 **** 0.06
29500 H 60.62726214919553 50.57310527894049 46.33322791075466 H 0.0 **** 0.06
29501 C 19.261334816699282 109.38328134442487 3.668547153853787 C 0.0 **** -0.24
29502 H 20.05028133069309 108.79857049826623 4.139810349466021 H 0.0 **** 0.06
29503 H 18.32585210495624 108.8252244206536 3.702326034783326 H 0.0 **** 0.06
29504 H 19.52889469111505 109.58280345474958 2.630062099347626 H 0.0 **** 0.06
29505 H 19.141206514280555 110.32719729029758 4.200053820629115 H 0.0 **** 0.06
29506 C 67.10912753610421 94.6544547453378 20.65554858006361 C 0.0 **** -0.24
29507 H 67.17079260254621 93.8950093880504 21.43492950906007 H 0.0 **** 0.06
29508 H 67.36633465056974 94.20895486850003 19.694263053888193 H 0.0 **** 0.06
29509 H 67.80409217648403 95.46302694297643 20.87962793315012 H 0.0 **** 0.06
29510 H 66.0941339920343 95.04899600907675 20.612819855971168 H 0.0 **** 0.06
29511 C 126.73730613560761 121.64980410431897 38.52805363260862 C 0.0 **** -0.24
29512 H 127.04920491347319 121.08338736460112 39.40577495593405 H 0.0 **** 0.06
29513 H 126.7688170706795 122.71579160481954 38.755450271491895 H 0.0 **** 0.06
29514 H 125.72066327948767 121.36494096710254 38.25463117140745 H 0.0 **** 0.06
29515 H 127.41005607760344 121.43393361610467 37.69845922610591 H 0.0 **** 0.06
29516 C 53.275675076187184 61.54042633253019 36.20144027644676 C 0.0 **** -0.24
29517 H 53.80602407487075 61.67870638589508 37.14423670232701 H 0.0 **** 0.06
29518 H 52.34349426744623 61.00568950013441 36.38401885462578 H 0.0 **** 0.06
29519 H 53.897885669304145 60.96445460040505 35.51667900882708 H 0.0 **** 0.06
29520 H 53.056564521496654 62.51421302730863 35.76242255684515 H 0.0 **** 0.06
29521 C 36.64526746536055 103.79818650582317 25.12182643276006 C 0.0 **** -0.24
29522 H 36.364847478760026 103.44873623531825 24.1282870041083 H 0.0 **** 0.06
29523 H 36.573136885121755 102.97257736816293 25.830223377996973 H 0.0 **** 0.06
29524 H 35.974248145795826 104.60023888147717 25.427822311803993 H 0.0 **** 0.06
29525 H 37.66981315176841 104.1699941357496 25.099073146742484 H 0.0 **** 0.06
29526 C 100.04751222483561 43.31284759277415 20.421035506638617 C 0.0 **** -0.24
29527 H 101.0573876628777 43.19473556589625 20.813236464605552 H 0.0 **** 0.06
29528 H 99.57486466262687 44.17741377632734 20.887904981940466 H 0.0 **** 0.06
29529 H 99.46623502534932 42.4174209985879 20.63963208778739 H 0.0 **** 0.06
29530 H 100.09323616500042 43.46245554365308 19.342029813005126 H 0.0 **** 0.06
29531 C 64.32646103839829 11.556275350985274 78.75418654235258 C 0.0 **** -0.24
29532 H 65.07084067264063 11.055616264932539 79.37379040051698 H 0.0 **** 0.06
29533 H 63.41242608224087 10.961316496265624 78.73240051655719 H 0.0 **** 0.06
29534 H 64.71254532990386 11.66797935342386 77.74199659402964 H 0.0 **** 0.06
29535 H 64.11047103246473 12.540081507238042 79.17227301925027 H 0.0 **** 0.06
29536 C 104.26639487929458 17.700172986689097 46.17130095060503 C 0.0 **** -0.24
29537 H 104.60907269034917 16.744392017375617 46.56812224981081 H 0.0 **** 0.06
29538 H 103.60689388811136 17.52389591133789 45.32101137897786 H 0.0 **** 0.06
29539 H 105.1258634824546 18.288459495802158 45.8496098232481 H 0.0 **** 0.06
29540 H 103.7232778628686 18.242263230375386 46.945063519298515 H 0.0 **** 0.06
29541 C 9.808696288426479 55.32590747605357 129.9774777304518 C 0.0 **** -0.24
29542 H 9.35472274429804 56.089924260874795 129.34589727061845 H 0.0 **** 0.06
29543 H 10.438329902046338 55.80236892100854 130.72888272879854 H 0.0 **** 0.06
29544 H 10.415217290392409 54.66026205648615 129.36300239064022 H 0.0 **** 0.06
29545 H 9.024882983331377 54.75104893630348 130.47154946423242 H 0.0 **** 0.06
29546 C 45.35013386046285 94.04484668837593 26.876454185530974 C 0.0 **** -0.24
29547 H 45.881523063819884 94.98399596840649 27.034655597706887 H 0.0 **** 0.06
29548 H 45.81187752950137 93.50060256764712 26.052875672118603 H 0.0 **** 0.06
29549 H 44.30822885069594 94.25468382172645 26.635707914132354 H 0.0 **** 0.06
29550 H 45.399722000649234 93.44241874574801 27.784303370123936 H 0.0 **** 0.06
29551 C 41.48244215443005 29.51202145951612 107.59208842559411 C 0.0 **** -0.24
29552 H 41.43204934628117 28.70991496335455 108.32799206594488 H 0.0 **** 0.06
29553 H 40.69060703095879 30.235883618310424 107.78859864285008 H 0.0 **** 0.06
29554 H 41.35543994514069 29.096553201877754 106.59300936553804 H 0.0 **** 0.06
29555 H 42.45099556352857 30.006764045826287 107.66061948755441 H 0.0 **** 0.06
29556 C 95.29200240541101 10.022883612854201 86.19307330294912 C 0.0 **** -0.24
29557 H 95.7711601463279 9.295594292810705 86.8483400909941 H 0.0 **** 0.06
29558 H 95.93895267941278 10.893443999515199 86.08315766202165 H 0.0 **** 0.06
29559 H 94.3396214617259 10.329317023533434 86.62575861018053 H 0.0 **** 0.06
29560 H 95.11939984502018 9.572362945308782 85.21530032676053 H 0.0 **** 0.06
29561 C 45.788903395092944 119.00953406321122 4.518577010336259 C 0.0 **** -0.24
29562 H 46.26682616872657 118.87378978713159 5.48909791154972 H 0.0 **** 0.06
29563 H 45.23023866793929 118.1091291279796 4.260088651678984 H 0.0 **** 0.06
29564 H 46.551488040210444 119.19345129293015 3.761301220509523 H 0.0 **** 0.06
29565 H 45.1085341169879 119.85954759409185 4.56477313572789 H 0.0 **** 0.06
29566 C 96.39987879508527 81.15747376733711 76.86059642618653 C 0.0 **** -0.24
29567 H 96.74716488778694 81.9487441042296 76.19569031749947 H 0.0 **** 0.06
29568 H 95.35473863987124 81.33214943699258 77.11923328875469 H 0.0 **** 0.06
29569 H 97.0033188953924 81.15480071303321 77.76814772096444 H 0.0 **** 0.06
29570 H 96.49344267783675 80.19505546763455 76.35807055205605 H 0.0 **** 0.06
29571 C 94.12849537582963 61.896411885363094 21.849392460203035 C 0.0 **** -0.24
29572 H 94.44373491921306 62.72248660298304 22.48641053758773 H 0.0 **** 0.06
29573 H 94.89630301130597 61.121454914851384 21.853356083476186 H 0.0 **** 0.06
29574 H 93.98232945102455 62.25723949220216 20.830888422173274 H 0.0 **** 0.06
29575 H 93.19277192974306 61.48370745264398 22.226626020798847 H 0.0 **** 0.06
29576 C 55.74553444425726 97.68555374215508 115.94255919307872 C 0.0 **** -0.24
29577 H 56.66848694506518 97.21812815636878 115.59742654069751 H 0.0 **** 0.06
29578 H 55.28658131363875 97.06112365127565 116.7088930232477 H 0.0 **** 0.06
29579 H 55.05891923764142 97.79427405226842 115.1022306887678 H 0.0 **** 0.06
29580 H 55.96951792946305 98.6674666021509 116.35799382875766 H 0.0 **** 0.06
29581 C 87.46260605316535 48.49466857784668 79.84277158612133 C 0.0 **** -0.24
29582 H 88.20480747777766 48.40774854281926 80.63513534052646 H 0.0 **** 0.06
29583 H 86.5064740226871 48.79748134164382 80.27197963821283 H 0.0 **** 0.06
29584 H 87.348784043319 47.532705817032706 79.34338331539789 H 0.0 **** 0.06
29585 H 87.78887770368182 49.24239512434556 79.11955701317879 H 0.0 **** 0.06
29586 C 101.77295436191707 104.38799470173413 105.77722733094441 C 0.0 **** -0.24
29587 H 100.89017807733046 104.03955373534231 106.31445955473248 H 0.0 **** 0.06
29588 H 101.51977753192477 104.55113244294228 104.72938475093842 H 0.0 **** 0.06
29589 H 102.56155769472156 103.63857527391949 105.84896857563453 H 0.0 **** 0.06
29590 H 102.11900904808766 105.3226926663402 106.21791918699836 H 0.0 **** 0.06
29591 C 78.87739182540817 51.963443237136175 2.5242334911019135 C 0.0 **** -0.24
29592 H 78.75309810132389 51.96618449799274 3.607478647379054 H 0.0 **** 0.06
29593 H 78.73199818197574 52.97341753391936 2.140525143950473 H 0.0 **** 0.06
29594 H 78.14250055120193 51.29563957474693 2.075989708393447 H 0.0 **** 0.06
29595 H 79.88128570354313 51.62056057529628 2.2747881005216684 H 0.0 **** 0.06
29596 C 46.76949935942702 121.41047241312167 32.586911323284596 C 0.0 **** -0.24
29597 H 46.60269092839713 121.85032623708203 33.57068268212993 H 0.0 **** 0.06
29598 H 45.86509506320187 121.51225362671414 31.98579069487414 H 0.0 **** 0.06
29599 H 47.014002616766845 120.35387245510243 32.69867977896479 H 0.0 **** 0.06
29600 H 47.59400639444018 121.924564918578 32.09403765331194 H 0.0 **** 0.06
29601 C 65.8056153719641 114.57980623019579 99.2683207050946 C 0.0 **** -0.24
29602 H 64.9993325459809 115.27197401678622 99.51253223214479 H 0.0 **** 0.06
29603 H 66.01124495242843 114.62456783636863 98.19851820886487 H 0.0 **** 0.06
29604 H 65.50876672243109 113.56699410471423 99.54014588839722 H 0.0 **** 0.06
29605 H 66.70156061548799 114.85730329118716 99.82307194312288 H 0.0 **** 0.06
29606 C 122.77268496994418 65.75492844293117 5.103688141408384 C 0.0 **** -0.24
29607 H 122.44965928383328 65.87494712004732 6.137978920428395 H 0.0 **** 0.06
29608 H 121.95554135256613 66.02556074705416 4.434730777500022 H 0.0 **** 0.06
29609 H 123.0558323838148 64.71675009490872 4.930452107363976 H 0.0 **** 0.06
29610 H 123.62799852262233 66.40284475065991 4.913302673170335 H 0.0 **** 0.06
29611 C 15.00339969728168 56.533349468434466 63.50116564418698 C 0.0 **** -0.24
29612 H 15.3875056855195 56.02134318336883 64.38416207365155 H 0.0 **** 0.06
29613 H 14.876866465209446 57.59257778242912 63.722617961635734 H 0.0 **** 0.06
29614 H 14.042105145965422 56.10167139649522 63.221645835736894 H 0.0 **** 0.06
29615 H 15.708367118236197 56.414892282391804 62.6772175871039 H 0.0 **** 0.06
29616 C 67.2941825482047 75.23276266799776 47.3877560132343 C 0.0 **** -0.24
29617 H 68.05867240257732 75.73490796496174 46.795078344121464 H 0.0 **** 0.06
29618 H 66.41217621212695 75.86993614963944 47.458398015955865 H 0.0 **** 0.06
29619 H 67.68069431162267 75.03608097043552 48.38806819932206 H 0.0 **** 0.06
29620 H 67.02468464775208 74.29122008525697 46.91022081652172 H 0.0 **** 0.06
29621 C 67.23549605989157 54.89411133447392 104.4671021624609 C 0.0 **** -0.24
29622 H 67.49271070720803 54.18893871201851 105.25730697980416 H 0.0 **** 0.06
29623 H 66.28910017794729 54.59998227396059 104.01204671046357 H 0.0 **** 0.06
29624 H 68.01898810518364 54.89330374477056 103.7106473260642 H 0.0 **** 0.06
29625 H 67.13884585038014 55.89407182252883 104.89114730566557 H 0.0 **** 0.06
29626 C 24.603374975055743 71.4852026684402 50.3795777844058 C 0.0 **** -0.24
29627 H 24.435256036398883 72.56141662278719 50.407684209894 H 0.0 **** 0.06
29628 H 25.642356951300286 71.28585746840986 50.11517000918309 H 0.0 **** 0.06
29629 H 23.94574860420275 71.03456975411945 49.63703826648032 H 0.0 **** 0.06
29630 H 24.389940203677483 71.05866452680385 51.36062537996327 H 0.0 **** 0.06
29631 C 3.218322657815591 23.169537412351445 45.51635684182918 C 0.0 **** -0.24
29632 H 4.054435781881551 23.038465155260383 44.82976718805742 H 0.0 **** 0.06
29633 H 2.931180168992256 24.220780278283655 45.5424739920262 H 0.0 **** 0.06
29634 H 3.513471076971129 22.847661875971824 46.514773582789104 H 0.0 **** 0.06
29635 H 2.372707053969947 22.569879978001723 45.17643655853611 H 0.0 **** 0.06
29636 C 79.44798746449368 23.493466576467682 22.878121893616424 C 0.0 **** -0.24
29637 H 79.35723202181089 22.49291697341431 23.300269237424004 H 0.0 **** 0.06
29638 H 80.02975225929345 24.121360165522475 23.553582389339766 H 0.0 **** 0.06
29639 H 78.45440678460739 23.923577995792925 22.746766860578987 H 0.0 **** 0.06
29640 H 79.94945437997126 23.435129395492424 21.911922538903298 H 0.0 **** 0.06
29641 C 102.15387409187724 17.257382187931583 69.61501679569467 C 0.0 **** -0.24
29642 H 101.93528744542172 16.19601249692289 69.50213780515449 H 0.0 **** 0.06
29643 H 101.78541280625979 17.798379899597577 68.74295242112237 H 0.0 **** 0.06
29644 H 103.23134538992761 17.3987776487064 69.70107729002771 H 0.0 **** 0.06
29645 H 101.66441948032553 17.6362412581573 70.5118877021362 H 0.0 **** 0.06
29646 C 11.15279087543589 119.80239950497 96.82700497081005 C 0.0 **** -0.24
29647 H 12.16821380224468 119.94841883983858 96.45988230487282 H 0.0 **** 0.06
29648 H 10.549725926063946 119.33152818051025 96.05070005022957 H 0.0 **** 0.06
29649 H 10.719375574465776 120.7676176989767 97.08909939903322 H 0.0 **** 0.06
29650 H 11.17429274822284 119.16208120149264 97.709232633107 H 0.0 **** 0.06
29651 C 80.1859247445866 105.9090623167513 44.3343506779401 C 0.0 **** -0.24
29652 H 80.09355813269173 105.60736792370125 43.290936866996546 H 0.0 **** 0.06
29653 H 79.63226006184567 106.83346907885714 44.49576310714776 H 0.0 **** 0.06
29654 H 81.23748455575895 106.0681535213475 44.57367772721114 H 0.0 **** 0.06
29655 H 79.78116322522584 105.12606380557156 44.97529755001973 H 0.0 **** 0.06
29656 C 54.99430127886146 75.51438247417684 65.69854626467232 C 0.0 **** -0.24
29657 H 53.982360440216326 75.70759642429873 66.05510285177708 H 0.0 **** 0.06
29658 H 55.01775317351962 74.56154093648868 65.1694493935637 H 0.0 **** 0.06
29659 H 55.6774586280857 75.4767863282013 66.54647549500613 H 0.0 **** 0.06
29660 H 55.29884229764616 76.31320988590403 65.02181437916047 H 0.0 **** 0.06
29661 C 120.90113376080006 68.46216050052718 102.4295736039994 C 0.0 **** -0.24
29662 H 119.84913627740323 68.24772902126651 102.61981804770372 H 0.0 **** 0.06
29663 H 121.13472876231394 69.46984655553322 102.77461811224802 H 0.0 **** 0.06
29664 H 121.09773792779913 68.38939505088109 101.35994868968682 H 0.0 **** 0.06
29665 H 121.52097136818205 67.74235289175132 102.96260899113071 H 0.0 **** 0.06
29666 C 100.91484759673148 105.20052029180673 44.748113614342316 C 0.0 **** -0.24
29667 H 100.47898228677224 106.05042379412211 44.22249686697568 H 0.0 **** 0.06
29668 H 100.17150887270958 104.40920216488999 44.83667742116432 H 0.0 **** 0.06
29669 H 101.23372047499987 105.51407675109311 45.74294726521008 H 0.0 **** 0.06
29670 H 101.77547012635614 104.832101911053 44.19010536204042 H 0.0 **** 0.06
29671 C 115.16862660277312 33.36040591496345 130.48179671699768 C 0.0 **** -0.24
29672 H 115.7578692977728 32.84693796022549 129.72162488779952 H 0.0 **** 0.06
29673 H 114.91075736872219 34.35888357523385 130.12739956292106 H 0.0 **** 0.06
29674 H 115.75019220351348 33.43901700803863 131.4006352496375 H 0.0 **** 0.06
29675 H 114.25639637517546 32.796906679306915 130.67595143144703 H 0.0 **** 0.06
29676 C 18.27471747403287 38.92327188668535 104.9953783495082 C 0.0 **** -0.24
29677 H 18.257383012806265 38.17404618375349 104.2031656912905 H 0.0 **** 0.06
29678 H 17.363016519331993 39.51967854457376 104.9507019391638 H 0.0 **** 0.06
29679 H 19.140737488449766 39.57152848192928 104.86305990609034 H 0.0 **** 0.06
29680 H 18.33687949557099 38.42646733948991 105.96303559003303 H 0.0 **** 0.06
29681 C 63.22509509800659 58.10948745236354 44.58784431565752 C 0.0 **** -0.24
29682 H 62.57635240796918 57.95259892295718 45.450230216509055 H 0.0 **** 0.06
29683 H 63.19951775249427 59.16044817639377 44.30073667438907 H 0.0 **** 0.06
29684 H 62.877654359176915 57.49591835523876 43.756075467284774 H 0.0 **** 0.06
29685 H 64.24650562584708 57.8269783879185 44.84569643287825 H 0.0 **** 0.06
29686 C 19.503275864955555 83.5309424246962 41.84576991001671 C 0.0 **** -0.24
29687 H 18.441128777110293 83.5617499166066 42.08978212767538 H 0.0 **** 0.06
29688 H 19.971314766606156 82.6954450033311 42.36542658737599 H 0.0 **** 0.06
29689 H 19.974418410147422 84.46353903290263 42.15869933328728 H 0.0 **** 0.06
29690 H 19.625527578260858 83.40601704384952 40.77043760337374 H 0.0 **** 0.06
29691 C 83.26782610983729 125.08782650847769 122.34392705392582 C 0.0 **** -0.24
29692 H 83.399550567419 126.1281718230353 122.0460633608906 H 0.0 **** 0.06
29693 H 84.24236383061331 124.60501448173117 122.41727726430346 H 0.0 **** 0.06
29694 H 82.66062619043691 124.57139967812284 121.60002914835914 H 0.0 **** 0.06
29695 H 82.76705457473159 125.04796209959531 123.31160634233767 H 0.0 **** 0.06
29696 C 35.77139151290157 52.66357390292822 18.706527639924744 C 0.0 **** -0.24
29697 H 34.87034877749721 52.11417688948276 18.978735949897498 H 0.0 **** 0.06
29698 H 35.52998305033731 53.398316432436275 17.937740999684365 H 0.0 **** 0.06
29699 H 36.519549056798326 51.968513946157515 18.324826919033242 H 0.0 **** 0.06
29700 H 36.16407020432396 53.17384993798896 19.586560784330956 H 0.0 **** 0.06
29701 C 82.28471775728266 78.06808493215237 111.68824992703242 C 0.0 **** -0.24
29702 H 81.60971372507268 77.97447697230466 110.83699049054724 H 0.0 **** 0.06
29703 H 82.13996530896631 77.22173664573856 112.36052504820344 H 0.0 **** 0.06
29704 H 82.07333117105327 78.99566480412963 112.21923740548561 H 0.0 **** 0.06
29705 H 83.31541012442852 78.07903221973245 111.33384779981535 H 0.0 **** 0.06
29706 C 61.76443797286032 89.25963000086347 64.03313563217587 C 0.0 **** -0.24
29707 H 62.586938379463305 89.26032788250126 64.74818181721703 H 0.0 **** 0.06
29708 H 61.83001359441462 88.3697953911099 63.405334075620644 H 0.0 **** 0.06
29709 H 61.82528571292423 90.15034528697078 63.40780107993514 H 0.0 **** 0.06
29710 H 60.81555859839213 89.25673417275067 64.56941914834417 H 0.0 **** 0.06
29711 C 43.906900262122676 24.4473168584001 76.42820373030588 C 0.0 **** -0.24
29712 H 44.776472513942075 25.076305682380138 76.24244979016765 H 0.0 **** 0.06
29713 H 43.48934410653434 24.683861940492292 77.40758610135009 H 0.0 **** 0.06
29714 H 44.20369853771195 23.399139338531455 76.40416006930803 H 0.0 **** 0.06
29715 H 43.15583036023058 24.629336687438382 75.65934270922548 H 0.0 **** 0.06
29716 C 67.00997350153908 87.40108305042429 108.500079822982 C 0.0 **** -0.24
29717 H 66.31120447101266 86.57793915192883 108.65704977938492 H 0.0 **** 0.06
29718 H 66.72182411808802 87.9553267377932 107.60633131929978 H 0.0 **** 0.06
29719 H 68.01653133329684 87.0036899277797 108.37357507982546 H 0.0 **** 0.06
29720 H 66.98689903838405 88.0658936979238 109.36341685335253 H 0.0 **** 0.06
29721 C 5.3266130420167315 12.960475698783227 121.98169294080128 C 0.0 **** -0.24
29722 H 6.246874619408203 13.166562939129676 121.43500916148048 H 0.0 **** 0.06
29723 H 5.564564289061224 12.430740602854485 122.90487898960748 H 0.0 **** 0.06
29724 H 4.669756928631045 12.344261856926664 121.36797965150947 H 0.0 **** 0.06
29725 H 4.827338177240932 13.899648670773729 122.21999570647563 H 0.0 **** 0.06
29726 C 92.17665439721375 24.104251260805853 12.002576266028075 C 0.0 **** -0.24
29727 H 93.01387056942536 23.54133421498196 12.414068545286487 H 0.0 **** 0.06
29728 H 91.25659859241664 23.807530872277567 12.506630653470538 H 0.0 **** 0.06
29729 H 92.08969980375751 23.896935108244747 10.935875559463614 H 0.0 **** 0.06
29730 H 92.34659048399273 25.170544744251913 12.15248762699417 H 0.0 **** 0.06
29731 C 35.105261773984054 105.14906662038315 88.461790705835 C 0.0 **** -0.24
29732 H 35.905703245306285 105.21767673761025 87.72566739613904 H 0.0 **** 0.06
29733 H 35.37997824607294 104.42793778058602 89.23180014945194 H 0.0 **** 0.06
29734 H 34.187529532985735 104.82569969553832 87.97061066468325 H 0.0 **** 0.06
29735 H 34.94728061461778 106.1263191943586 88.91740435740178 H 0.0 **** 0.06
29736 C 123.71981498357432 31.989078333925903 67.30190025551279 C 0.0 **** -0.24
29737 H 124.6201944080165 32.546952272590204 67.04044060015467 H 0.0 **** 0.06
29738 H 123.44701702664906 31.333434713765882 66.47493883531936 H 0.0 **** 0.06
29739 H 122.90551418701888 32.68630242330744 67.49729782858299 H 0.0 **** 0.06
29740 H 123.9097059790527 31.39188687155584 68.19324428883155 H 0.0 **** 0.06
29741 C 15.282476255307586 59.95317920232702 25.687297870831777 C 0.0 **** -0.24
29742 H 14.69323104938644 59.38619153230229 24.966136601979557 H 0.0 **** 0.06
29743 H 15.827625361857997 60.742455261358714 25.169194357640123 H 0.0 **** 0.06
29744 H 15.989228316464164 59.28698091922789 26.18109316054788 H 0.0 **** 0.06
29745 H 14.618775018911208 60.39534832350142 26.43014482124761 H 0.0 **** 0.06
29746 C 12.59289422251041 79.40207325744296 63.66802874581205 C 0.0 **** -0.24
29747 H 12.520744625699582 80.22949501164982 62.96257562044508 H 0.0 **** 0.06
29748 H 11.594158141407704 79.02915334290375 63.89322510448781 H 0.0 **** 0.06
29749 H 13.068395075756928 79.74660825555105 64.58588385221461 H 0.0 **** 0.06
29750 H 13.189549471792937 78.60253163507417 63.22866080344585 H 0.0 **** 0.06
29751 C 38.130186821165296 99.06233576515217 26.024124206713054 C 0.0 **** -0.24
29752 H 37.50939762123261 98.29747064585717 26.491934694066487 H 0.0 **** 0.06
29753 H 38.09250765098727 99.97500275437807 26.620387418490537 H 0.0 **** 0.06
29754 H 37.75775961546947 99.26801962036473 25.020966913596652 H 0.0 **** 0.06
29755 H 39.159629342895585 98.70863982990556 25.96516861207644 H 0.0 **** 0.06
29756 C 0.38820290803647417 53.45155926998231 71.68572083991197 C 0.0 **** -0.24
29757 H -0.4976955782331167 53.76589288595268 72.2382185890443 H 0.0 **** 0.06
29758 H 0.11500742617526072 52.66935062578192 70.97739016729483 H 0.0 **** 0.06
29759 H 1.1331166653311797 53.06760451233697 72.38212134432808 H 0.0 **** 0.06
29760 H 0.8002146428201158 54.30452547710348 71.14523446278329 H 0.0 **** 0.06
29761 C 28.452773734444378 115.55570848906933 92.04101164600182 C 0.0 **** -0.24
29762 H 27.990063479745203 115.1915367313097 91.12442037871583 H 0.0 **** 0.06
29763 H 27.978342538788382 116.48971362753784 92.34067956877878 H 0.0 **** 0.06
29764 H 29.51545332015641 115.72546534503476 91.8697366023529 H 0.0 **** 0.06
29765 H 28.32626419102951 114.8142414385164 92.82994093483336 H 0.0 **** 0.06
29766 C 11.180315531854973 109.92514342210228 51.9523968213888 C 0.0 **** -0.24
29767 H 10.796522791756416 110.93550463783819 52.09417771955489 H 0.0 **** 0.06
29768 H 10.991866998569549 109.33639898630035 52.84910608529182 H 0.0 **** 0.06
29769 H 12.253906303055317 109.96850155409577 51.763625768426635 H 0.0 **** 0.06
29770 H 10.681209994822638 109.46283093926883 51.1002534353991 H 0.0 **** 0.06
29771 C 96.1153885959342 38.65806984450165 97.29630397777618 C 0.0 **** -0.24
29772 H 95.02643914348826 38.6939356266435 97.27080524295587 H 0.0 **** 0.06
29773 H 96.45906590650038 38.80383544290139 98.32070321767748 H 0.0 **** 0.06
29774 H 96.51978528552604 39.445456804564806 96.66101152010464 H 0.0 **** 0.06
29775 H 96.45605790446281 37.687866816000955 96.93344033028501 H 0.0 **** 0.06
29776 C 13.731192328949192 0.8006880078929726 34.943905229272985 C 0.0 **** -0.24
29777 H 13.615176410813433 1.8818397267498028 34.86673173314209 H 0.0 **** 0.06
29778 H 13.531984249106358 0.3435446684511021 33.97458506246464 H 0.0 **** 0.06
29779 H 13.029127298775677 0.41235082123864686 35.681262234406915 H 0.0 **** 0.06
29780 H 14.749768361823044 0.5671170930298501 35.25443217452765 H 0.0 **** 0.06
29781 C 42.550374256956616 103.25719947790483 85.41851678506342 C 0.0 **** -0.24
29782 H 42.32417881436379 102.6727442602245 84.52647462703999 H 0.0 **** 0.06
29783 H 43.28668740288418 102.72692128754008 86.0224997849283 H 0.0 **** 0.06
29784 H 41.639470758025084 103.40239077121254 85.99896984431481 H 0.0 **** 0.06
29785 H 42.951736143678374 104.22694008889951 85.12375032123221 H 0.0 **** 0.06
29786 C 123.42245312749395 123.46681827311392 102.68717079743982 C 0.0 **** -0.24
29787 H 124.19436496533427 123.38338024739173 103.45195747231895 H 0.0 **** 0.06
29788 H 123.69805611344373 122.85918711095877 101.82499978340155 H 0.0 **** 0.06
29789 H 123.32433941337888 124.50908262235485 102.38123898276518 H 0.0 **** 0.06
29790 H 122.4722927560266 123.11541130237168 103.08987155362428 H 0.0 **** 0.06
29791 C 63.89325262060156 57.851323705957924 116.68120939540142 C 0.0 **** -0.24
29792 H 64.92546279888536 57.85904047137828 117.03261104490292 H 0.0 **** 0.06
29793 H 63.82110777314065 57.244897007985585 115.77913945825117 H 0.0 **** 0.06
29794 H 63.576664089157944 58.87078419032508 116.4601426435267 H 0.0 **** 0.06
29795 H 63.24967087391633 57.431484235856004 117.45402101658578 H 0.0 **** 0.06
29796 C 19.051741362242737 20.176056398271527 96.66479324324055 C 0.0 **** -0.24
29797 H 19.877547574376948 20.409976644001006 95.99321386192688 H 0.0 **** 0.06
29798 H 18.57709820085882 19.2474084884023 96.34812087277382 H 0.0 **** 0.06
29799 H 18.322243163831544 20.985585972849606 96.63817140417578 H 0.0 **** 0.06
29800 H 19.431667618702406 20.06232174518621 97.68024090579675 H 0.0 **** 0.06
29801 C 42.61478623160366 11.143789707184169 4.7710345864542205 C 0.0 **** -0.24
29802 H 42.58392477623358 11.641030892698979 3.801827068143325 H 0.0 **** 0.06
29803 H 43.077654808811914 10.16320084182783 4.661660877950283 H 0.0 **** 0.06
29804 H 41.60004535012869 11.02625381059363 5.151289404183387 H 0.0 **** 0.06
29805 H 43.19751999124034 11.744673283616493 5.469360995539546 H 0.0 **** 0.06
29806 C 10.127866232221493 59.88295517149959 121.72599566910246 C 0.0 **** -0.24
29807 H 10.950410249636207 60.584372039853335 121.58580939219738 H 0.0 **** 0.06
29808 H 10.39317465401561 59.16323772828724 122.5009503513729 H 0.0 **** 0.06
29809 H 9.935516487337367 59.35670829112412 120.7915433096504 H 0.0 **** 0.06
29810 H 9.233669986340772 60.427982798673014 122.02711588610704 H 0.0 **** 0.06
29811 C 37.50025958378706 38.82455458516644 33.37577257465773 C 0.0 **** -0.24
29812 H 36.88990460400126 37.92344030546653 33.32251581355439 H 0.0 **** 0.06
29813 H 38.54762625353111 38.562165186131494 33.226035003919066 H 0.0 **** 0.06
29814 H 37.37818309790336 39.28875118193109 34.35465221377402 H 0.0 **** 0.06
29815 H 37.18531289046477 39.522687536019305 32.60067555414261 H 0.0 **** 0.06
29816 C 32.25368512390624 39.37802854235497 93.26828927707294 C 0.0 **** -0.24
29817 H 31.713749379386854 38.75070367388932 92.55891181692041 H 0.0 **** 0.06
29818 H 32.531744812316504 38.783316348863934 94.13880390935546 H 0.0 **** 0.06
29819 H 31.61439770856873 40.203962012104654 93.5816804509052 H 0.0 **** 0.06
29820 H 33.15224594654927 39.77237571336286 92.79482949052328 H 0.0 **** 0.06
29821 C 13.86787615289428 100.54572235249154 124.15524878051625 C 0.0 **** -0.24
29822 H 14.57188000551453 99.74908856965087 123.91168822704847 H 0.0 **** 0.06
29823 H 12.918728631547168 100.10893323862788 124.46690686433689 H 0.0 **** 0.06
29824 H 13.709343140909137 101.17065011088872 123.27672273339718 H 0.0 **** 0.06
29825 H 14.272341762338005 101.15210565929377 124.96471912462266 H 0.0 **** 0.06
29826 C 28.992082191211765 86.38855282549372 40.07715487469991 C 0.0 **** -0.24
29827 H 30.047640096759018 86.65812398879251 40.092912749122554 H 0.0 **** 0.06
29828 H 28.862647525642103 85.4016609402772 40.52145606134263 H 0.0 **** 0.06
29829 H 28.635489796703887 86.37367092936765 39.04741323567828 H 0.0 **** 0.06
29830 H 28.42154966197716 87.12142920722594 40.64871972571623 H 0.0 **** 0.06
29831 C 60.474465419485114 50.75828274445925 94.30527646636503 C 0.0 **** -0.24
29832 H 59.755465038162015 51.326260437918705 93.71455124749971 H 0.0 **** 0.06
29833 H 61.47240029296725 50.88502305909083 93.88216476658744 H 0.0 **** 0.06
29834 H 60.20472432665676 49.703036957810525 94.28864946736613 H 0.0 **** 0.06
29835 H 60.46679023627834 51.119854755248866 95.33337287426241 H 0.0 **** 0.06
29836 C 17.316788947572036 37.43615840126458 109.87593124492398 C 0.0 **** -0.24
29837 H 17.77473712673668 36.90071711702447 110.70778194188782 H 0.0 **** 0.06
29838 H 17.792028834971575 37.132596167297436 108.94293311481835 H 0.0 **** 0.06
29839 H 17.447396192876 38.50865946201657 110.01864658545904 H 0.0 **** 0.06
29840 H 16.252926025275713 37.201652064634516 109.83576972693993 H 0.0 **** 0.06
29841 C 5.386239023971768 47.51950367311641 79.9643430776477 C 0.0 **** -0.24
29842 H 5.995279209688732 47.640498714270365 79.06869431697748 H 0.0 **** 0.06
29843 H 4.777068306259025 46.620533964981725 79.87125731672575 H 0.0 **** 0.06
29844 H 4.737930185562675 48.38773174701879 80.08317127010923 H 0.0 **** 0.06
29845 H 6.035097750971261 47.430068844224486 80.83628762899446 H 0.0 **** 0.06
29846 C 45.65335696481034 1.7453923875523856 54.97108496536441 C 0.0 **** -0.24
29847 H 46.2709013594081 2.6358571935849113 55.08561347959636 H 0.0 **** 0.06
29848 H 44.65552954996045 2.0364984728875015 54.640869517529154 H 0.0 **** 0.06
29849 H 45.582617226749875 1.2278924971462288 55.92769628250238 H 0.0 **** 0.06
29850 H 46.103348706126354 1.0837354168847924 54.232187914346696 H 0.0 **** 0.06
29851 C 2.99863096645543 99.84643034992669 102.98887704139523 C 0.0 **** -0.24
29852 H 3.111829964378842 99.41818344384896 101.99350074001565 H 0.0 **** 0.06
29853 H 3.1748432502849653 99.07414967781342 103.73818759831316 H 0.0 **** 0.06
29854 H 1.9885525659062893 100.23947415553737 103.10299821564244 H 0.0 **** 0.06
29855 H 3.7200438901732866 100.65280866346177 103.12129261820841 H 0.0 **** 0.06
29856 C 23.9711721906245 117.13519042386554 119.33526509181183 C 0.0 **** -0.24
29857 H 24.553962659787018 116.70851936291501 120.15107297112138 H 0.0 **** 0.06
29858 H 23.15333602065136 116.46023195083518 119.08121474884956 H 0.0 **** 0.06
29859 H 24.612546451182872 117.27309203301053 118.46484411975743 H 0.0 **** 0.06
29860 H 23.565046126397654 118.09809781139018 119.64339395288988 H 0.0 **** 0.06
29861 C 14.117077174188708 107.8511116589446 36.41847814493076 C 0.0 **** -0.24
29862 H 14.639780613706375 107.26439770178933 37.17487975781847 H 0.0 **** 0.06
29863 H 14.502312977147387 107.59590119199723 35.43130315507884 H 0.0 **** 0.06
29864 H 14.276322818856322 108.91289817040507 36.60853798147471 H 0.0 **** 0.06
29865 H 13.050684522555066 107.62960859380456 36.46082872246416 H 0.0 **** 0.06
29866 C 36.3108708071083 89.40136999352106 56.77691071951503 C 0.0 **** -0.24
29867 H 36.015906618164564 89.8908017229514 55.848076372052134 H 0.0 **** 0.06
29868 H 37.22465183258615 88.83062310548702 56.61154840105149 H 0.0 **** 0.06
29869 H 35.51663524085441 88.73029336959338 57.102490889117405 H 0.0 **** 0.06
29870 H 36.487361065275536 90.15579895947423 57.543358744030655 H 0.0 **** 0.06
29871 C 98.94518679608109 39.60792887992079 18.277811851163165 C 0.0 **** -0.24
29872 H 99.90177509392953 39.82988957645887 18.749424691738852 H 0.0 **** 0.06
29873 H 99.06542339043165 39.61481666447031 17.193388814551952 H 0.0 **** 0.06
29874 H 98.21357240259516 40.36220637775534 18.56732402718393 H 0.0 **** 0.06
29875 H 98.60097439005239 38.62514841663938 18.599737064642966 H 0.0 **** 0.06
29876 C 99.24859489153032 76.8642090460902 118.56953835751793 C 0.0 **** -0.24
29877 H 98.66784537570722 77.77579527620884 118.7063373027398 H 0.0 **** 0.06
29878 H 98.9878568192044 76.40781855277726 117.6147405598446 H 0.0 **** 0.06
29879 H 99.02800738866098 76.16733212038434 119.37825906711076 H 0.0 **** 0.06
29880 H 100.31205462590452 77.10584523543713 118.57853215953332 H 0.0 **** 0.06
29881 C 19.08238431182997 8.271139052849492 70.99482726475398 C 0.0 **** -0.24
29882 H 19.028440227009526 7.816873897625669 71.98395296356136 H 0.0 **** 0.06
29883 H 19.42518884324312 7.530400219011341 70.27258666199117 H 0.0 **** 0.06
29884 H 19.781620404330425 9.10812650411836 71.01686058478569 H 0.0 **** 0.06
29885 H 18.094897508154304 8.631306743262115 70.70587652417001 H 0.0 **** 0.06
29886 C 65.39062485556565 14.36352417827078 19.413711746530048 C 0.0 **** -0.24
29887 H 66.06392723660824 14.760892120780284 20.173953256350956 H 0.0 **** 0.06
29888 H 65.95443789239795 14.153123055881565 18.504824127510133 H 0.0 **** 0.06
29889 H 64.61284673101466 15.095347391100972 19.198669034557795 H 0.0 **** 0.06
29890 H 64.9332225721057 13.443410623132422 19.77927260653305 H 0.0 **** 0.06
29891 C 42.09094649024015 22.723658875248816 81.43182706498408 C 0.0 **** -0.24
29892 H 41.97126802842113 21.71777742022465 81.02778857097377 H 0.0 **** 0.06
29893 H 42.763219283021066 23.29446900935409 80.7913416657673 H 0.0 **** 0.06
29894 H 42.50950865870562 22.663310498996395 82.43735148323573 H 0.0 **** 0.06
29895 H 41.119811826438635 23.217045625861317 81.47175763138407 H 0.0 **** 0.06
29896 C 108.48451360215577 85.06157262053104 64.00934785081145 C 0.0 **** -0.24
29897 H 109.5354339528239 85.13179097441518 64.28983183472408 H 0.0 **** 0.06
29898 H 108.40403755367197 84.95190774827729 62.92697323944694 H 0.0 **** 0.06
29899 H 107.96318561883464 85.96509305803448 64.32308872554222 H 0.0 **** 0.06
29900 H 108.03573892659847 84.19547487087154 64.4966100960112 H 0.0 **** 0.06
29901 C 23.271847935473872 96.04723221934982 35.47501369421836 C 0.0 **** -0.24
29902 H 23.847920131430612 95.15387005444967 35.23659963433229 H 0.0 **** 0.06
29903 H 22.491084544177824 95.79487207477332 36.19259320842332 H 0.0 **** 0.06
29904 H 22.81761891303941 96.44087910779385 34.56562620734678 H 0.0 **** 0.06
29905 H 23.932141748711615 96.80015498415769 35.90707843665655 H 0.0 **** 0.06
29906 C 111.31642911409605 99.87625651299588 68.49688663629331 C 0.0 **** -0.24
29907 H 111.94380762224617 100.09450608987002 67.63248463633062 H 0.0 **** 0.06
29908 H 111.43710607812037 98.83036186086773 68.77800028238954 H 0.0 **** 0.06
29909 H 110.2728599169545 100.06668567084272 68.24495098240601 H 0.0 **** 0.06
29910 H 111.6105788103981 100.51461175390308 69.33042490875954 H 0.0 **** 0.06
29911 C 74.09184395082384 84.70451320626373 60.687977847811695 C 0.0 **** -0.24
29912 H 74.80140363517476 85.48842975933164 60.95073306165669 H 0.0 **** 0.06
29913 H 74.35053187508234 83.78825288164697 61.2175200802441 H 0.0 **** 0.06
29914 H 74.12837541701153 84.52696545102779 59.613796466905356 H 0.0 **** 0.06
29915 H 73.08561235298731 85.01626831965828 60.97050796930421 H 0.0 **** 0.06
29916 C 65.39470581747187 115.0488550527608 74.00833666639059 C 0.0 **** -0.24
29917 H 64.34810184576551 115.09180706380273 74.30778224259561 H 0.0 **** 0.06
29918 H 65.5505955258466 115.69066148780762 73.1403485021063 H 0.0 **** 0.06
29919 H 65.65798490934849 114.02251100537107 73.75387753573686 H 0.0 **** 0.06
29920 H 66.02185599048461 115.39208862287255 74.83178909848492 H 0.0 **** 0.06
29921 C 118.51247625286493 95.11690993972108 74.83571429155478 C 0.0 **** -0.24
29922 H 118.21704986897095 96.1511623396448 74.65753817610681 H 0.0 **** 0.06
29923 H 119.59804536820371 95.03263034750259 74.76925211523081 H 0.0 **** 0.06
29924 H 118.05123168392606 94.47317566792746 74.08677697674352 H 0.0 **** 0.06
29925 H 118.18447803729384 94.8117430402478 75.829494355364 H 0.0 **** 0.06
29926 C 58.45898479154438 85.68104859519275 0.7942808492258315 C 0.0 **** -0.24
29927 H 58.75286621252718 85.04295085431073 1.6281156608189846 H 0.0 **** 0.06
29928 H 58.28356858519045 85.06687765473714 -0.08835759314638914 H 0.0 **** 0.06
29929 H 59.25405767580126 86.39692704280162 0.5873011621377344 H 0.0 **** 0.06
29930 H 57.545906575083876 86.21718201860648 1.052237375864241 H 0.0 **** 0.06
29931 C 90.09822299383993 70.15177260005379 58.26449506602722 C 0.0 **** -0.24
29932 H 89.32139980348103 70.91158902552377 58.354195904286655 H 0.0 **** 0.06
29933 H 89.65006444019377 69.21008348267145 57.94860909321608 H 0.0 **** 0.06
29934 H 90.58701016372581 70.01625373756974 59.229497259172774 H 0.0 **** 0.06
29935 H 90.83353629266279 70.47087655137352 57.52621770589229 H 0.0 **** 0.06
29936 C 127.8614638568562 98.37329243395749 104.41458431084163 C 0.0 **** -0.24
29937 H 127.29274880653493 97.59401805098827 104.92250175477827 H 0.0 **** 0.06
29938 H 127.22327282867025 98.86926020810637 103.6840779237622 H 0.0 **** 0.06
29939 H 128.71730534945644 97.92644813496145 103.90771743031297 H 0.0 **** 0.06
29940 H 128.21192271510023 99.1010808367796 105.14628786216392 H 0.0 **** 0.06
29941 C 30.20642689599751 97.12841708765644 114.81996036246657 C 0.0 **** -0.24
29942 H 31.17832572392396 96.94872895953695 114.35907493092627 H 0.0 **** 0.06
29943 H 29.43071481997697 97.09365579919061 114.05488657042453 H 0.0 **** 0.06
29944 H 30.20578749807575 98.10973831885524 115.29434490911898 H 0.0 **** 0.06
29945 H 30.01292081135753 96.36095280939865 115.56941779830557 H 0.0 **** 0.06
29946 C 10.764092962661838 14.377594831849642 61.61998562577577 C 0.0 **** -0.24
29947 H 10.029971862993339 14.711203009942892 62.35399673905977 H 0.0 **** 0.06
29948 H 10.332218852806694 13.585775008663415 61.00738246857932 H 0.0 **** 0.06
29949 H 11.646191981646826 13.998522350899862 62.1358866200831 H 0.0 **** 0.06
29950 H 11.047318342932655 15.21550674963499 60.983751851185644 H 0.0 **** 0.06
29951 C 83.44348989676385 60.527091434941724 112.73194236975348 C 0.0 **** -0.24
29952 H 84.49326925623593 60.80896393301123 112.81170230210893 H 0.0 **** 0.06
29953 H 83.16074087912241 59.930155198808734 113.60017085606961 H 0.0 **** 0.06
29954 H 83.29283127503973 59.94306225068425 111.82441863932974 H 0.0 **** 0.06
29955 H 82.8284028566934 61.42516356610696 112.69299684652839 H 0.0 **** 0.06
29956 C 98.56335383026105 50.59174845696958 113.99997931767247 C 0.0 **** -0.24
29957 H 97.67944302894705 49.99721496853482 113.77039913337846 H 0.0 **** 0.06
29958 H 98.6279723675852 50.74653097080284 115.077501636885 H 0.0 **** 0.06
29959 H 98.49278680537566 51.5566800849968 113.49784514837036 H 0.0 **** 0.06
29960 H 99.45381908659672 50.06680514494593 113.65493064675859 H 0.0 **** 0.06
29961 C 25.682913949076436 31.517084679427427 76.20054756172829 C 0.0 **** -0.24
29962 H 26.123218312130618 30.6736518507319 76.73088944379867 H 0.0 **** 0.06
29963 H 26.363221789462422 31.8477107928873 75.41501325549632 H 0.0 **** 0.06
29964 H 25.51012443845098 32.335184936266366 76.89967860430451 H 0.0 **** 0.06
29965 H 24.735227882146276 31.21319622961142 75.7566935738962 H 0.0 **** 0.06
29966 C 117.89140576483231 127.23144153122888 120.00581558742638 C 0.0 **** -0.24
29967 H 117.04350089063018 127.2056941119503 120.69002377536117 H 0.0 **** 0.06
29968 H 118.70416967197926 127.80372777541324 120.45515717466513 H 0.0 **** 0.06
29969 H 117.58940804048217 127.70290000825 119.0699006223383 H 0.0 **** 0.06
29970 H 118.2298079639894 126.2137920193799 119.80764907994379 H 0.0 **** 0.06
29971 C 52.73684279744934 61.04001509622043 7.392696056132195 C 0.0 **** -0.24
29972 H 51.81421976031196 61.60987064995328 7.502818027066809 H 0.0 **** 0.06
29973 H 53.53211134626504 61.522191951512724 7.961127127402875 H 0.0 **** 0.06
29974 H 53.01440330942886 61.00177869773489 6.339054446758865 H 0.0 **** 0.06
29975 H 52.58526717341067 60.026990191809034 7.76543302007488 H 0.0 **** 0.06
29976 C 14.285281451059149 103.62003863084585 13.423799826294886 C 0.0 **** -0.24
29977 H 14.37001431161596 102.66886840802069 13.94872170863286 H 0.0 **** 0.06
29978 H 13.243929541752294 103.79114772606589 13.148546444985183 H 0.0 **** 0.06
29979 H 14.89941459256272 103.59423110263987 12.523965456271561 H 0.0 **** 0.06
29980 H 14.627588342466908 104.42500954518019 14.074368273878271 H 0.0 **** 0.06
29981 C 93.32215959768459 34.14902094739696 18.420065727314224 C 0.0 **** -0.24
29982 H 93.80707066836425 33.313614700582576 18.924225500167523 H 0.0 **** 0.06
29983 H 94.0554008274602 34.933180448503464 18.228836278167847 H 0.0 **** 0.06
29984 H 92.52587245280306 34.5425183803068 19.05167004016704 H 0.0 **** 0.06
29985 H 92.90138879444638 33.80800381898288 17.473719720726763 H 0.0 **** 0.06
29986 C 103.51018825446124 64.91211350491261 22.61746392378427 C 0.0 **** -0.24
29987 H 103.46419643370194 65.46988870020192 23.552107695507516 H 0.0 **** 0.06
29988 H 103.92547012888076 63.921460172875186 22.805778761275718 H 0.0 **** 0.06
29989 H 104.14416548174168 65.44348047295239 21.90765797127534 H 0.0 **** 0.06
29990 H 102.50610489199286 64.81263296189593 22.20371912630702 H 0.0 **** 0.06
29991 C 26.43971048672188 104.77299193114868 55.44179487504729 C 0.0 **** -0.24
29992 H 27.409378971006902 104.41882069973548 55.09096688774795 H 0.0 **** 0.06
29993 H 25.96051024159661 103.99340406268414 56.03351044636119 H 0.0 **** 0.06
29994 H 25.811422047991215 105.01736908917144 54.58472313685192 H 0.0 **** 0.06
29995 H 26.57917234427265 105.66274940861956 56.055706502072525 H 0.0 **** 0.06
29996 C 3.545865445223839 2.161038628419135 67.560383059732 C 0.0 **** -0.24
29997 H 3.9987885338491793 3.1461466217608063 67.67110510817736 H 0.0 **** 0.06
29998 H 3.7236920230822363 1.7914930064462737 66.55003744535796 H 0.0 **** 0.06
29999 H 2.4726826178714134 2.2330297614713572 67.73707874947698 H 0.0 **** 0.06
30000 H 3.987794586563581 1.4748793935379467 68.28241531065248 H 0.0 **** 0.06
30001 C 23.46765950049604 37.30546627799841 80.0523208753991 C 0.0 **** -0.24
30002 H 24.277212598603114 37.868521178453506 80.51845016918557 H 0.0 **** 0.06
30003 H 23.875302497862606 36.41870730262381 79.56713620370455 H 0.0 **** 0.06
30004 H 22.97176224705987 37.930442033500256 79.31016277617677 H 0.0 **** 0.06
30005 H 22.749213916905546 37.00518850089913 80.81490244885035 H 0.0 **** 0.06
30006 C 102.44393667836312 71.61649257006712 86.18494444031018 C 0.0 **** -0.24
30007 H 103.42884995135591 71.71665164021073 85.729267521846 H 0.0 **** 0.06
30008 H 102.48883909183616 70.88280808591145 86.98922254432162 H 0.0 **** 0.06
30009 H 101.72769210734316 71.28798433805008 85.43146812595575 H 0.0 **** 0.06
30010 H 102.13136447025363 72.58007839836887 86.58820921200798 H 0.0 **** 0.06
30011 C 115.43227356475454 60.88662225485433 53.56081097312094 C 0.0 **** -0.24
30012 H 114.3535583663534 61.01690297943793 53.47178880284085 H 0.0 **** 0.06
30013 H 115.64819048486808 59.870446040148806 53.89306590423334 H 0.0 **** 0.06
30014 H 115.82464366557379 61.597773477708984 54.28704375675768 H 0.0 **** 0.06
30015 H 115.89983056077969 61.059850193883506 52.592552796526576 H 0.0 **** 0.06
30016 C 88.31400353167633 32.6513091696926 122.74514693579988 C 0.0 **** -0.24
30017 H 88.25051894055447 33.61958614138638 123.24312782382805 H 0.0 **** 0.06
30018 H 89.183999987603 32.63896183506175 122.08754123527194 H 0.0 **** 0.06
30019 H 87.41149728827486 32.48510254707562 122.15801727418376 H 0.0 **** 0.06
30020 H 88.41215770169937 31.864474077143896 123.49289940360138 H 0.0 **** 0.06
30021 C 1.3046386243595975 31.689391241492444 108.99076755581007 C 0.0 **** -0.24
30022 H 1.6137990230670312 32.59454313136854 108.46772224842083 H 0.0 **** 0.06
30023 H 1.2137045279296501 30.87034022847729 108.27722014544109 H 0.0 **** 0.06
30024 H 0.341598824160684 31.859541342103682 109.47209878759458 H 0.0 **** 0.06
30025 H 2.048385947640014 31.43472540404582 109.7448667670828 H 0.0 **** 0.06
30026 C 64.68696627537066 119.40214397599209 124.11384902072838 C 0.0 **** -0.24
30027 H 65.04672353878246 119.80955024206594 125.05920523477837 H 0.0 **** 0.06
30028 H 63.622731171986786 119.61105666509678 124.01045396672811 H 0.0 **** 0.06
30029 H 64.84974616957913 118.32414845436762 124.09858893137384 H 0.0 **** 0.06
30030 H 65.23098235969996 119.86425712969418 123.28968493575415 H 0.0 **** 0.06
30031 C 7.504161769421728 123.10719775888077 14.673927504624057 C 0.0 **** -0.24
30032 H 8.531922476939087 123.46417672154996 14.613319100802379 H 0.0 **** 0.06
30033 H 7.317418221634966 122.70790660982931 15.672103861051117 H 0.0 **** 0.06
30034 H 7.348243354834608 122.32290141106466 13.933485654702771 H 0.0 **** 0.06
30035 H 6.820382294028093 123.9327646271588 14.47858319742015 H 0.0 **** 0.06
30036 C 24.08357282120747 72.33594507390788 111.53926371849602 C 0.0 **** -0.24
30037 H 23.325481180196476 72.13115980497729 110.78399789168694 H 0.0 **** 0.06
30038 H 24.883597482282397 72.93190057652045 111.09926929908472 H 0.0 **** 0.06
30039 H 24.49134352949858 71.3942078978202 111.90824430994275 H 0.0 **** 0.06
30040 H 23.632707792377147 72.88472364999566 112.3662167282021 H 0.0 **** 0.06
30041 C 22.88939470065945 79.81704500313276 27.638781078841312 C 0.0 **** -0.24
30042 H 22.599599571876674 79.04523521185291 26.925142552295426 H 0.0 **** 0.06
30043 H 23.064976708555854 79.36184269942657 28.61378996248994 H 0.0 **** 0.06
30044 H 22.09084607406355 80.55385184900763 27.71954725800296 H 0.0 **** 0.06
30045 H 23.80119234670184 80.3046293391547 27.29516066842988 H 0.0 **** 0.06
30046 C 123.61018964822438 106.13931703743685 37.67778674556504 C 0.0 **** -0.24
30047 H 124.58213780904242 106.55683058890224 37.414882432882074 H 0.0 **** 0.06
30048 H 123.42279734564272 106.29538800973995 38.74075265147735 H 0.0 **** 0.06
30049 H 123.60368758111417 105.070405112309 37.4607162952436 H 0.0 **** 0.06
30050 H 122.83366290788933 106.63274547668141 37.09454581382004 H 0.0 **** 0.06
30051 C 69.93913807605702 102.99054557639668 23.815308440603857 C 0.0 **** -0.24
30052 H 70.88093283654723 103.16870220413509 24.336322289337474 H 0.0 **** 0.06
30053 H 69.32655125830536 103.89192805275862 23.854698273387527 H 0.0 **** 0.06
30054 H 69.40797809135654 102.16904368768866 24.297225706141674 H 0.0 **** 0.06
30055 H 70.14181166852302 102.73321141263017 22.77581337161139 H 0.0 **** 0.06
30056 C 48.591944590673336 99.0592688241116 24.335989703049563 C 0.0 **** -0.24
30057 H 48.042102246467266 99.95368183690786 24.629566354549922 H 0.0 **** 0.06
30058 H 47.977690803134664 98.17771164568117 24.522517875562983 H 0.0 **** 0.06
30059 H 49.51104545327087 98.99115128110569 24.91736310631029 H 0.0 **** 0.06
30060 H 48.835642277546015 99.1150016721171 23.274818753885825 H 0.0 **** 0.06
30061 C 56.10566634293738 44.074782952140595 95.8737442614615 C 0.0 **** -0.24
30062 H 57.14280101015984 43.927438144110766 96.17439628548357 H 0.0 **** 0.06
30063 H 55.86854673282525 43.40392225938828 95.04710420943758 H 0.0 **** 0.06
30064 H 55.96305260903779 45.107450579745716 95.55474992670557 H 0.0 **** 0.06
30065 H 55.449007753557424 43.85990009018926 96.71643061374365 H 0.0 **** 0.06
30066 C 48.57508182162107 25.14436878579457 118.65636846638644 C 0.0 **** -0.24
30067 H 49.548856196858225 25.251887780188696 119.13675137550584 H 0.0 **** 0.06
30068 H 47.855221958392065 25.80122224030613 119.14488028530741 H 0.0 **** 0.06
30069 H 48.24087369867007 24.110543132503125 118.74194826942255 H 0.0 **** 0.06
30070 H 48.658207101484976 25.413542622107187 117.60410850794116 H 0.0 **** 0.06
30071 C 2.675094277212878 3.3187668650735134 53.552109039020195 C 0.0 **** -0.24
30072 H 3.323051381340264 2.5708268566386607 54.00757333703116 H 0.0 **** 0.06
30073 H 1.6938569813324023 2.8825975672496043 53.362221599184295 H 0.0 **** 0.06
30074 H 3.1119105664109554 3.653301127506552 52.61043080127533 H 0.0 **** 0.06
30075 H 2.5712048970903822 4.168502760920219 54.22652237658076 H 0.0 **** 0.06
30076 C 107.88758784830165 94.20930926075445 75.63612615643852 C 0.0 **** -0.24
30077 H 108.84995931412236 93.83330634236114 75.98185781376345 H 0.0 **** 0.06
30078 H 107.08827257187956 93.75446030342158 76.22100902686705 H 0.0 **** 0.06
30079 H 107.75596234083937 93.95837148295999 74.58345173156114 H 0.0 **** 0.06
30080 H 107.8560430965978 95.29281762672184 75.75836821684254 H 0.0 **** 0.06
30081 C 83.02435874172392 21.291797649862474 12.916962722836843 C 0.0 **** -0.24
30082 H 82.80620577334955 22.1410847984705 12.2713498693563 H 0.0 **** 0.06
30083 H 82.63085317539878 21.483614917264504 13.915588287852813 H 0.0 **** 0.06
30084 H 84.10319600427601 21.145114990802483 12.97270185675302 H 0.0 **** 0.06
30085 H 82.55721028706304 20.394930365995037 12.508348053638485 H 0.0 **** 0.06
30086 C 127.05478208674774 35.50808038063421 114.95589905307827 C 0.0 **** -0.24
30087 H 126.08558469020622 35.30828144728315 115.41184226115087 H 0.0 **** 0.06
30088 H 127.37456552569225 34.6352573546762 114.3864422928836 H 0.0 **** 0.06
30089 H 127.7858634553996 35.72128855015685 115.73588609818756 H 0.0 **** 0.06
30090 H 126.97207650959527 36.36660474834343 114.2897878464704 H 0.0 **** 0.06
30091 C 37.17505610685215 7.637283873447572 5.517429181337661 C 0.0 **** -0.24
30092 H 36.45166055379556 7.9466346802507815 4.762363304129963 H 0.0 **** 0.06
30093 H 36.669600238257935 7.518738050715669 6.47684401835977 H 0.0 **** 0.06
30094 H 37.95244656187537 8.395971333141375 5.607528494561279 H 0.0 **** 0.06
30095 H 37.62345390084424 6.688893287110858 5.223616124053592 H 0.0 **** 0.06
30096 C 48.89429161858621 65.83182384807361 76.28749830809716 C 0.0 **** -0.24
30097 H 48.563836860657744 66.78677631146766 75.87906605322152 H 0.0 **** 0.06
30098 H 48.09304117806613 65.09902030330784 76.19163814415188 H 0.0 **** 0.06
30099 H 49.15114741439447 65.95504669759187 77.33896995468595 H 0.0 **** 0.06
30100 H 49.77012525771903 65.4863632479592 75.73715300976014 H 0.0 **** 0.06
30101 C 52.8522585743159 93.23286037039509 112.39784744216529 C 0.0 **** -0.24
30102 H 53.540907749069476 93.94343038430435 112.85376188339167 H 0.0 **** 0.06
30103 H 52.13960510690421 92.8856875553011 113.14668894814811 H 0.0 **** 0.06
30104 H 53.41246437449078 92.38278684068752 112.0080360232554 H 0.0 **** 0.06
30105 H 52.31603848591317 93.71853958628816 111.58282893833876 H 0.0 **** 0.06
30106 C 5.354682721341746 12.221372961019199 83.57717977615106 C 0.0 **** -0.24
30107 H 5.212440019230712 12.526072440328903 82.541128802655 H 0.0 **** 0.06
30108 H 6.366338854583219 12.475154484977168 83.89552760030463 H 0.0 **** 0.06
30109 H 5.206419247990652 11.144500510467026 83.66279627983097 H 0.0 **** 0.06
30110 H 4.633261613837945 12.738788065692177 84.21025300421239 H 0.0 **** 0.06
30111 C 97.12853203931283 118.26955921292415 124.01803509984907 C 0.0 **** -0.24
30112 H 96.38643206413873 119.0518049153686 124.1777278004439 H 0.0 **** 0.06
30113 H 96.70823893260179 117.4948632908756 123.37739764161537 H 0.0 **** 0.06
30114 H 97.40970847974987 117.8344632697593 124.97772091817669 H 0.0 **** 0.06
30115 H 98.01061117032899 118.6973625251438 123.54134105299778 H 0.0 **** 0.06
30116 C 92.94246683598428 2.341464349764294 14.714745927909547 C 0.0 **** -0.24
30117 H 93.32503364788231 2.119737511965127 13.71791275495977 H 0.0 **** 0.06
30118 H 92.97562922360281 1.438828308899815 15.325048242855047 H 0.0 **** 0.06
30119 H 91.91264194791584 2.691727431601066 14.639267528124009 H 0.0 **** 0.06
30120 H 93.55709512970222 3.114588912941201 15.175880335447204 H 0.0 **** 0.06
30121 C 100.55157464003793 36.724054481618026 26.346152356643074 C 0.0 **** -0.24
30122 H 100.1421989625492 37.184258389964214 25.447208336110776 H 0.0 **** 0.06
30123 H 101.5782544208859 37.06209022848229 26.491359123208042 H 0.0 **** 0.06
30124 H 100.53877119035799 35.639872200554336 26.23742662145169 H 0.0 **** 0.06
30125 H 99.94935202346379 37.00957687956236 27.207818921826515 H 0.0 **** 0.06
30126 C 0.7889255971030593 119.98414652408489 39.23922381728721 C 0.0 **** -0.24
30127 H 0.05757961660739852 119.23973483469128 39.55456931523406 H 0.0 **** 0.06
30128 H 1.5799103895197675 120.05571321153045 39.985517805216205 H 0.0 **** 0.06
30129 H 0.2986654328911129 120.95225515115582 39.13510779775339 H 0.0 **** 0.06
30130 H 1.2173157755406692 119.68898396198148 38.28159112984713 H 0.0 **** 0.06
30131 C 31.24828648275667 6.572050985214048 51.8888056817473 C 0.0 **** -0.24
30132 H 32.171527297753954 6.803955575101185 52.419448789522406 H 0.0 **** 0.06
30133 H 30.80066825023937 5.673375354126648 52.31468191668259 H 0.0 **** 0.06
30134 H 31.46719160608251 6.405507978826705 50.834075647966586 H 0.0 **** 0.06
30135 H 30.55403894670397 7.406440437044893 51.98834497300966 H 0.0 **** 0.06
30136 C 33.840142265145055 51.99284386658266 60.588864357929594 C 0.0 **** -0.24
30137 H 33.672465600035686 50.91552428212731 60.58726623616303 H 0.0 **** 0.06
30138 H 34.71030417189981 52.22363235379575 61.202912699814476 H 0.0 **** 0.06
30139 H 32.963185676430264 52.494922189273126 60.99710442439567 H 0.0 **** 0.06
30140 H 34.01337802121851 52.335522006391926 59.56874351508111 H 0.0 **** 0.06
30141 C 126.16708775914856 34.24916537207134 83.63607401463051 C 0.0 **** -0.24
30142 H 126.53135274809475 34.658281698368896 84.57806885581711 H 0.0 **** 0.06
30143 H 126.72653979852053 33.3457019806819 83.39210101971669 H 0.0 **** 0.06
30144 H 126.30240844728657 34.986176167333184 82.84421740337186 H 0.0 **** 0.06
30145 H 125.1082709740153 34.006931082006126 83.73078446591639 H 0.0 **** 0.06
30146 C 112.56327741946451 102.4273125434126 61.66651224069443 C 0.0 **** -0.24
30147 H 112.64628257808086 101.65008091828548 60.90716871827139 H 0.0 **** 0.06
30148 H 113.53211356825075 102.57111690766436 62.14604780456595 H 0.0 **** 0.06
30149 H 111.82796220807278 102.12805726477688 62.41355996344264 H 0.0 **** 0.06
30150 H 112.24756690400257 103.3598000117322 61.19813366681326 H 0.0 **** 0.06
30151 C 69.92039327101749 115.15356344218422 111.62712285651696 C 0.0 **** -0.24
30152 H 69.51564162348124 114.17215473869176 111.37861417248291 H 0.0 **** 0.06
30153 H 70.30789053525234 115.13961618924837 112.64565454212254 H 0.0 **** 0.06
30154 H 69.13110806819125 115.90135384360264 111.54895084548696 H 0.0 **** 0.06
30155 H 70.72431140052684 115.40034512072323 110.93404141629304 H 0.0 **** 0.06
30156 C 64.65601439869715 65.93965042463086 74.36222002317561 C 0.0 **** -0.24
30157 H 65.40160985073908 66.08341483390464 75.1445337158566 H 0.0 **** 0.06
30158 H 64.92257656937022 65.07014757193653 73.76146977409974 H 0.0 **** 0.06
30159 H 64.62299141545708 66.82454928993369 73.72660382391246 H 0.0 **** 0.06
30160 H 63.677939555867624 65.78240234898888 74.8167418658974 H 0.0 **** 0.06
30161 C 31.6950436260784 88.0717564572762 127.0519319671045 C 0.0 **** -0.24
30162 H 31.8351691095421 87.72025445075175 128.07389019968073 H 0.0 **** 0.06
30163 H 30.990893907258588 88.90389145061063 127.0479311447628 H 0.0 **** 0.06
30164 H 31.302410470698455 87.26046120153892 126.43918759384277 H 0.0 **** 0.06
30165 H 32.65081165827764 88.40283401757564 126.64691032087867 H 0.0 **** 0.06
30166 C 45.552621500628184 52.84768471793603 129.35607314750044 C 0.0 **** -0.24
30167 H 44.52139488797088 52.501024601266295 129.29438143311856 H 0.0 **** 0.06
30168 H 45.7319913353723 53.28030955489464 130.34057185696858 H 0.0 **** 0.06
30169 H 45.72897134815671 53.601913917692855 128.5893140570813 H 0.0 **** 0.06
30170 H 46.22826309096159 52.00613276324964 129.2003963499768 H 0.0 **** 0.06
30171 C 15.908258047848165 129.05978643040146 40.40598826620504 C 0.0 **** -0.24
30172 H 15.569694820500999 128.32553661265186 41.136897021638106 H 0.0 **** 0.06
30173 H 15.043376938142245 129.5441879291729 39.95169719605599 H 0.0 **** 0.06
30174 H 16.49189612499991 128.55936528243907 39.63329832882158 H 0.0 **** 0.06
30175 H 16.526452197683682 129.80774978511653 40.902349300462674 H 0.0 **** 0.06
30176 C 102.33950845853505 70.80224781993857 63.982980410121996 C 0.0 **** -0.24
30177 H 101.27755776288845 71.00810434217514 64.11395077056042 H 0.0 **** 0.06
30178 H 102.4646784661315 69.8354010117984 63.49628220227143 H 0.0 **** 0.06
30179 H 102.82881594039753 70.78627028603465 64.95688306422429 H 0.0 **** 0.06
30180 H 102.78681568600702 71.58138996936187 63.36431060693218 H 0.0 **** 0.06
30181 C 3.0777494049437166 71.74942776451303 53.10102696374133 C 0.0 **** -0.24
30182 H 3.9049915712529355 72.09976336393984 53.7185792727289 H 0.0 **** 0.06
30183 H 3.4715343948826387 71.22796425427484 52.228240222935426 H 0.0 **** 0.06
30184 H 2.4799267356901282 72.60215418526664 52.7769694719712 H 0.0 **** 0.06
30185 H 2.454150751948845 71.06821177419661 53.68115457139044 H 0.0 **** 0.06
30186 C 117.12704158699475 59.72355637212277 73.58197619399792 C 0.0 **** -0.24
30187 H 117.34258369866394 60.52123885416137 74.29212805656891 H 0.0 **** 0.06
30188 H 116.70226868205944 60.15263263311331 72.67335189048256 H 0.0 **** 0.06
30189 H 116.41302199582175 59.02804589119452 74.02306310694603 H 0.0 **** 0.06
30190 H 118.04810355488556 59.19486723596805 73.33807236760379 H 0.0 **** 0.06
30191 C 112.9114508076766 20.989710337509365 57.60404520874266 C 0.0 **** -0.24
30192 H 112.43420976237519 20.065980824238693 57.932258976586695 H 0.0 **** 0.06
30193 H 112.19582832976113 21.586440125603332 57.03875017106759 H 0.0 **** 0.06
30194 H 113.7666816016287 20.750949662726455 56.9705002662277 H 0.0 **** 0.06
30195 H 113.24938401810851 21.55334101528952 58.47405964151045 H 0.0 **** 0.06
30196 C 54.830921227359894 110.57685716353151 63.57324710524861 C 0.0 **** -0.24
30197 H 54.44969336416587 109.7053044923097 63.041644155841254 H 0.0 **** 0.06
30198 H 55.37735778410321 110.25213814162944 64.4591772159007 H 0.0 **** 0.06
30199 H 53.9974865883235 111.21275169900409 63.87295588208775 H 0.0 **** 0.06
30200 H 55.499147172846904 111.13723432118283 62.91921116716479 H 0.0 **** 0.06
30201 C 67.14554075107941 29.22808523874582 40.3479234368254 C 0.0 **** -0.24
30202 H 66.89470538681934 29.471533477033233 39.31548600747641 H 0.0 **** 0.06
30203 H 66.63635820891102 28.308341058316017 40.63662271919384 H 0.0 **** 0.06
30204 H 66.82623132020103 30.041054426233643 41.00050453740775 H 0.0 **** 0.06
30205 H 68.2230984025723 29.091768754698393 40.43776093282975 H 0.0 **** 0.06
30206 C 38.5085765218665 12.51133392232208 68.67337991646508 C 0.0 **** -0.24
30207 H 39.18938475240357 11.835704657715326 68.15608919589323 H 0.0 **** 0.06
30208 H 37.79310451299497 12.923102107670843 67.96011814627968 H 0.0 **** 0.06
30209 H 39.0770036894111 13.323026402989399 69.1276445456333 H 0.0 **** 0.06
30210 H 37.97345796921317 11.96349760264718 69.4492632786704 H 0.0 **** 0.06
30211 C 1.37208599095473 18.758848904691604 22.2610905444346 C 0.0 **** -0.24
30212 H 0.9729391618442094 19.543272154615465 22.90271531308047 H 0.0 **** 0.06
30213 H 0.8287772241630478 18.752041783855702 21.314616096133506 H 0.0 **** 0.06
30214 H 1.2567703118587872 17.793027483205833 22.752890034572246 H 0.0 **** 0.06
30215 H 2.4290558839602454 18.94649485489697 22.071894568573647 H 0.0 **** 0.06
30216 C 126.98739247637667 120.27369906685742 102.10744566999492 C 0.0 **** -0.24
30217 H 127.29339267138025 119.94298150182348 103.09926680563834 H 0.0 **** 0.06
30218 H 127.87045183374887 120.53175605918784 101.52228221510549 H 0.0 **** 0.06
30219 H 126.3438854218012 121.14867647472803 102.19910086755269 H 0.0 **** 0.06
30220 H 126.44235180411992 119.47166451533211 101.60994421420415 H 0.0 **** 0.06
30221 C 74.23620982033373 96.52770413702291 35.843413783414945 C 0.0 **** -0.24
30222 H 74.78468215483664 95.68628421164357 36.26782764248597 H 0.0 **** 0.06
30223 H 73.60915558558344 96.17531740094068 35.02421474496606 H 0.0 **** 0.06
30224 H 74.94222867588797 97.26903382647544 35.46887520264943 H 0.0 **** 0.06
30225 H 73.61072220742275 96.9780928083602 36.61365382303009 H 0.0 **** 0.06
30226 C 9.974926375462132 60.335427857768906 105.6616694546513 C 0.0 **** -0.24
30227 H 9.009645502299179 60.33308523325971 106.16858942206454 H 0.0 **** 0.06
30228 H 10.77268962559441 60.39598346865412 106.40079271157788 H 0.0 **** 0.06
30229 H 10.031549645293524 61.19424836008514 104.99330384693323 H 0.0 **** 0.06
30230 H 10.082549309308888 59.41797044829025 105.08364727739854 H 0.0 **** 0.06
30231 C 59.657590018542166 68.36938633762242 61.67748644020966 C 0.0 **** -0.24
30232 H 60.26883473601657 68.99947114879795 61.03173612563842 H 0.0 **** 0.06
30233 H 58.75689071231517 68.0666063753576 61.14310872192796 H 0.0 **** 0.06
30234 H 59.37946144308643 68.92706721278276 62.57243731800867 H 0.0 **** 0.06
30235 H 60.22591044298713 67.48347754909749 61.963441098483 H 0.0 **** 0.06
30236 C 37.66722127690616 53.57198864174427 113.05983642065678 C 0.0 **** -0.24
30237 H 37.29282596134135 53.933554812634256 112.10228668060535 H 0.0 **** 0.06
30238 H 38.69783937352429 53.233926596358984 112.94226523365552 H 0.0 **** 0.06
30239 H 37.04954770085351 52.741765021057205 113.40158418394475 H 0.0 **** 0.06
30240 H 37.63077164283152 54.377448882586705 113.79328968517115 H 0.0 **** 0.06
30241 C 94.33600127486577 43.44827723543084 22.24279144213628 C 0.0 **** -0.24
30242 H 95.31301771140235 43.34170031674459 21.769911126446402 H 0.0 **** 0.06
30243 H 94.16164931385723 42.603426169632954 22.909391444943026 H 0.0 **** 0.06
30244 H 93.56216039034919 43.471173063025866 21.474537175502007 H 0.0 **** 0.06
30245 H 94.30853638852929 44.37538620551798 22.814143374292996 H 0.0 **** 0.06
30246 C 117.8114093335823 49.796308729989136 18.355457670541114 C 0.0 **** -0.24
30247 H 117.83292074474117 49.36951436488559 17.352556221274824 H 0.0 **** 0.06
30248 H 117.01336236125226 50.536572307568946 18.4178064628735 H 0.0 **** 0.06
30249 H 118.76788817783181 50.27264213681164 18.567707764942327 H 0.0 **** 0.06
30250 H 117.6303274206989 49.00458044718633 19.082762396447833 H 0.0 **** 0.06
30251 C 2.295383940125703 65.49234413244137 5.033631556507601 C 0.0 **** -0.24
30252 H 2.8116359065890038 65.99121775577244 5.854059192888599 H 0.0 **** 0.06
30253 H 1.669962407625036 66.21235288247789 4.507328706547469 H 0.0 **** 0.06
30254 H 1.672750742239316 64.69008001713627 5.429519994880877 H 0.0 **** 0.06
30255 H 3.0293451538582303 65.0752070483649 4.343349642791452 H 0.0 **** 0.06
30256 C 85.72014892751532 127.24276150371345 51.13214859001434 C 0.0 **** -0.24
30257 H 85.86538152372033 126.17381391629372 50.98229562402071 H 0.0 **** 0.06
30258 H 86.23137662247107 127.55587077400517 52.042986308577014 H 0.0 **** 0.06
30259 H 84.65409823711752 127.45532281442169 51.22250997535369 H 0.0 **** 0.06
30260 H 86.12754170504493 127.78799776774046 50.280226021709524 H 0.0 **** 0.06
30261 C 62.998967913576735 26.92645446297206 120.6097731264664 C 0.0 **** -0.24
30262 H 62.15832776497456 27.283827475198024 120.01360097346489 H 0.0 **** 0.06
30263 H 63.78883398828236 26.571917153689412 119.94654509195516 H 0.0 **** 0.06
30264 H 62.66690026305673 26.108140516752798 121.24990898613967 H 0.0 **** 0.06
30265 H 63.37832121256491 27.739566199195735 121.22698032930141 H 0.0 **** 0.06
30266 C 100.30269001591711 26.149703285218294 76.05034326469143 C 0.0 **** -0.24
30267 H 100.04904419776265 26.524717033515287 77.04122766037662 H 0.0 **** 0.06
30268 H 99.54336489101152 26.468833247398834 75.33563636368147 H 0.0 **** 0.06
30269 H 100.34425524586261 25.060272730536752 76.07396372478838 H 0.0 **** 0.06
30270 H 101.2736808655643 26.54312724426157 75.74994717032301 H 0.0 **** 0.06
30271 C 3.309226517972988 41.481892066518526 124.79433379416946 C 0.0 **** -0.24
30272 H 3.995086298971387 40.664373950537765 125.01749289649717 H 0.0 **** 0.06
30273 H 2.2855265147652233 41.15894809742588 124.98038458541669 H 0.0 **** 0.06
30274 H 3.415640852034741 41.77008452346047 123.74895897348335 H 0.0 **** 0.06
30275 H 3.543094468175312 42.335537326320264 125.43156852218306 H 0.0 **** 0.06
30276 C 36.764196217678744 16.554797062702946 128.91367925727954 C 0.0 **** -0.24
30277 H 36.10225307453052 16.27893264551804 128.09264479816886 H 0.0 **** 0.06
30278 H 37.708227548400174 16.92270796362999 128.51096357525358 H 0.0 **** 0.06
30279 H 36.95085088769051 15.681105666351584 129.53892553203502 H 0.0 **** 0.06
30280 H 36.294759285824824 17.335805905246346 129.51252036501313 H 0.0 **** 0.06
30281 C 17.502337769784816 68.0290176248854 66.11812015292719 C 0.0 **** -0.24
30282 H 17.841583162387707 69.06070127284958 66.21144157280901 H 0.0 **** 0.06
30283 H 16.41311528450551 68.00785838633864 66.06231479312811 H 0.0 **** 0.06
30284 H 17.832403201465723 67.45757919731108 66.98605934617291 H 0.0 **** 0.06
30285 H 17.92138847476039 67.58942298212659 65.21267354560746 H 0.0 **** 0.06
30286 C 93.80931680989636 39.4926964258427 65.14488475433133 C 0.0 **** -0.24
30287 H 92.80351122758026 39.72696812169467 65.49390106637311 H 0.0 **** 0.06
30288 H 94.13344620801314 38.54668663613257 65.57937539681959 H 0.0 **** 0.06
30289 H 94.49290670833199 40.28548636953382 65.44781939478155 H 0.0 **** 0.06
30290 H 93.80632530366313 39.411212196004385 64.05763598908398 H 0.0 **** 0.06
30291 C 39.95927608191981 42.85096429990398 112.47199154743312 C 0.0 **** -0.24
30292 H 39.180029420190806 42.85641018617491 113.23485556839931 H 0.0 **** 0.06
30293 H 39.55430401975417 43.236067711048634 111.53606127719294 H 0.0 **** 0.06
30294 H 40.31346805132486 41.830416051719624 112.32269701866541 H 0.0 **** 0.06
30295 H 40.788281931657295 43.47864969591467 112.79649844599994 H 0.0 **** 0.06
30296 C 86.99870239944946 90.2335317190012 75.11427484954675 C 0.0 **** -0.24
30297 H 87.70547092061241 90.60399406015273 75.8572980137987 H 0.0 **** 0.06
30298 H 86.28110969564801 89.56886393947708 75.5954067753288 H 0.0 **** 0.06
30299 H 87.53875925712924 89.6885918298062 74.34023896038798 H 0.0 **** 0.06
30300 H 86.47024320011224 91.07446750148213 74.6656376548234 H 0.0 **** 0.06
30301 C 96.36319740786047 33.78668467438865 62.84964507150599 C 0.0 **** -0.24
30302 H 96.3705711207795 32.85180332479641 63.4108874551803 H 0.0 **** 0.06
30303 H 95.45769435092038 33.83902456600009 62.244755622739575 H 0.0 **** 0.06
30304 H 97.23732313743167 33.827291636753074 62.20041575524033 H 0.0 **** 0.06
30305 H 96.38560026455106 34.62641571009061 63.54412859271318 H 0.0 **** 0.06
30306 C 58.610203456965564 126.12309546448691 26.308638267336242 C 0.0 **** -0.24
30307 H 58.9314780923216 125.27562870703116 26.914191876767376 H 0.0 **** 0.06
30308 H 58.03795387860836 125.76141382694985 25.454043444340243 H 0.0 **** 0.06
30309 H 59.48479902976392 126.66921337740075 25.956078707874376 H 0.0 **** 0.06
30310 H 57.986947456271 126.78393741598592 26.909960366242636 H 0.0 **** 0.06
30311 C 97.76321870904809 14.441057264472875 92.18409255492716 C 0.0 **** -0.24
30312 H 97.37801190698536 15.420020690075944 91.89967248667179 H 0.0 **** 0.06
30313 H 98.70745817208348 14.258957825183074 91.67114705409449 H 0.0 **** 0.06
30314 H 97.0430682016729 13.672133091040564 91.90557631769178 H 0.0 **** 0.06
30315 H 97.92391755220439 14.414382440960821 93.2617700555231 H 0.0 **** 0.06
30316 C 25.383709775796873 86.30504686141191 45.11778236314231 C 0.0 **** -0.24
30317 H 25.3736106848728 87.33619439007458 44.76392889228944 H 0.0 **** 0.06
30318 H 24.968759125833557 85.65316297480672 44.348162390944196 H 0.0 **** 0.06
30319 H 24.781328830248242 86.2264624037314 46.023432523398725 H 0.0 **** 0.06
30320 H 26.408534020215612 86.00501163668393 45.33426688549284 H 0.0 **** 0.06
30321 C 128.97012765809376 66.11618100662366 50.110498230675546 C 0.0 **** -0.24
30322 H 128.9510752115417 65.05786645418499 50.36989707110524 H 0.0 **** 0.06
30323 H 129.9211010948455 66.54871694772423 50.421865646832316 H 0.0 **** 0.06
30324 H 128.1535878317882 66.62931853620968 50.61779303439528 H 0.0 **** 0.06
30325 H 128.856378163947 66.22742452611345 49.031816885512 H 0.0 **** 0.06
30326 C 77.72270089605767 92.18316719317802 93.71788216712395 C 0.0 **** -0.24
30327 H 77.36345454165843 92.72814537971264 92.84457332274471 H 0.0 **** 0.06
30328 H 78.81142928247456 92.12939552052246 93.6889748867969 H 0.0 **** 0.06
30329 H 77.30764336239172 91.17517340577128 93.71220306876332 H 0.0 **** 0.06
30330 H 77.40821511744275 92.7009147407416 94.62375887631902 H 0.0 **** 0.06
30331 C 19.761056337629185 51.100067190377985 100.90115846061637 C 0.0 **** -0.24
30332 H 18.908450245183786 51.04257194584264 101.57858054165276 H 0.0 **** 0.06
30333 H 20.421930989637218 50.25112410279257 101.07642055625101 H 0.0 **** 0.06
30334 H 20.304457468112048 52.028489419230695 101.07958463913246 H 0.0 **** 0.06
30335 H 19.40675330181719 51.07947744382524 99.86969833565477 H 0.0 **** 0.06
30336 C 40.11711364700207 128.41063408251068 100.12617631300279 C 0.0 **** -0.24
30337 H 39.1703075247155 128.10594090131346 100.57195394356413 H 0.0 **** 0.06
30338 H 40.87440645293222 128.4981231681905 100.90505481355069 H 0.0 **** 0.06
30339 H 39.991623282235025 129.37367097406897 99.63119996168203 H 0.0 **** 0.06
30340 H 40.43114951706869 127.6650520318677 99.39549624305553 H 0.0 **** 0.06
30341 C 25.984388519815752 48.83862202408859 75.1278761314626 C 0.0 **** -0.24
30342 H 25.364823041566147 48.7354534887626 76.01863217701185 H 0.0 **** 0.06
30343 H 25.79352557501734 49.80563948383164 74.66180631266738 H 0.0 **** 0.06
30344 H 25.744941696831127 48.042563492889755 74.42403992188262 H 0.0 **** 0.06
30345 H 27.036304616400386 48.77250707025554 75.40804015545427 H 0.0 **** 0.06
30346 C 78.82024134556103 23.774244035048966 70.8868628633589 C 0.0 **** -0.24
30347 H 77.81776836381839 24.084588961966645 71.18195849289565 H 0.0 **** 0.06
30348 H 79.5431179293226 24.139135699707488 71.61686287363445 H 0.0 **** 0.06
30349 H 79.05338322777075 24.187799022413735 69.90514260592137 H 0.0 **** 0.06
30350 H 78.86631270072476 22.68621379130728 70.84296440105483 H 0.0 **** 0.06
30351 C 48.16761561981747 33.17256800182952 61.4804466871492 C 0.0 **** -0.24
30352 H 47.77392958010739 33.4791883640632 62.449875263208355 H 0.0 **** 0.06
30353 H 48.838878790817944 32.32427111636179 61.61256252291909 H 0.0 **** 0.06
30354 H 48.71167056600717 34.00233750701071 61.03088337622239 H 0.0 **** 0.06
30355 H 47.341712935969554 32.88394335720664 60.829158636812224 H 0.0 **** 0.06
30356 C 17.484370091431373 113.57605839392224 0.041035091985804684 C 0.0 **** -0.24
30357 H 16.6941583782004 113.26469670016021 0.7252360072245096 H 0.0 **** 0.06
30358 H 18.406283819383845 113.04806383293791 0.28740953105091194 H 0.0 **** 0.06
30359 H 17.643898078095503 114.65055636700006 0.1361741995574448 H 0.0 **** 0.06
30360 H 17.19219422913777 113.34040798085218 -0.9824777994272154 H 0.0 **** 0.06
30361 C 47.302586052839445 122.70114727656444 57.35238757147978 C 0.0 **** -0.24
30362 H 47.219179569155926 121.78844924349751 56.76192914172515 H 0.0 **** 0.06
30363 H 46.41107389231155 123.3105982767238 57.20641845235015 H 0.0 **** 0.06
30364 H 48.182279656697176 123.25960715341603 57.03276249812643 H 0.0 **** 0.06
30365 H 47.3991968037991 122.44364202903479 58.40675934529723 H 0.0 **** 0.06
30366 C 81.10086585221052 97.11091363023762 112.30529897101786 C 0.0 **** -0.24
30367 H 80.57352640593103 97.83998688642355 112.92152201166702 H 0.0 **** 0.06
30368 H 80.56759537305402 96.97647141040373 111.36401879207689 H 0.0 **** 0.06
30369 H 81.15187609676502 96.1593224910127 112.8333744070974 H 0.0 **** 0.06
30370 H 82.11059343325496 97.46970104248929 112.10356319485909 H 0.0 **** 0.06
30371 C 103.93855684692582 125.80989802605123 104.47399113998421 C 0.0 **** -0.24
30372 H 103.85031143240357 125.54822223834324 103.41922716782035 H 0.0 **** 0.06
30373 H 104.498985548696 126.7391271248874 104.57140449695807 H 0.0 **** 0.06
30374 H 104.46162494981203 125.01270203007553 105.00276028418477 H 0.0 **** 0.06
30375 H 102.94377053324703 125.9378646437851 104.90034215126445 H 0.0 **** 0.06
30376 C 31.59915377617964 20.854530933687414 6.659451525902995 C 0.0 **** -0.24
30377 H 31.29940965647875 21.874395890536903 6.4177235403765 H 0.0 **** 0.06
30378 H 32.34763826299775 20.516787060489094 5.941835622915079 H 0.0 **** 0.06
30379 H 30.72935453764788 20.199727910280814 6.613129618707632 H 0.0 **** 0.06
30380 H 32.02122309108859 20.8289175357028 7.664081266464137 H 0.0 **** 0.06
30381 C 99.32576244612585 22.864844300594868 114.78724797446722 C 0.0 **** -0.24
30382 H 99.93368346373131 23.708991235125595 114.46084256406812 H 0.0 **** 0.06
30383 H 99.12164630114887 22.955071485269414 115.85504487931988 H 0.0 **** 0.06
30384 H 99.86313643570895 21.935255040663236 114.59714135789852 H 0.0 **** 0.06
30385 H 98.3859774677465 22.860155581408918 114.2361820870982 H 0.0 **** 0.06
30386 C 9.891266254469784 113.63655624443223 42.11491785642532 C 0.0 **** -0.24
30387 H 10.673607335987167 112.88882362614086 41.982396657713 H 0.0 **** 0.06
30388 H 8.983789801147413 113.15147842625063 42.475301678928645 H 0.0 **** 0.06
30389 H 9.688586651300806 114.12310511934132 41.161237303828074 H 0.0 **** 0.06
30390 H 10.21908535483059 114.38058169599876 42.840744434292404 H 0.0 **** 0.06
30391 C 117.46419145516268 66.5463306863445 5.69032017194229 C 0.0 **** -0.24
30392 H 118.1084358372184 67.01023044285779 6.43793084721446 H 0.0 **** 0.06
30393 H 117.53867219559402 65.46208095716963 5.769456603850301 H 0.0 **** 0.06
30394 H 117.77887248246986 66.86138167841398 4.694686064892267 H 0.0 **** 0.06
30395 H 116.43178132375408 66.85440271782244 5.858642690011294 H 0.0 **** 0.06
30396 C 79.13284211394136 57.67125824708681 65.58118570841724 C 0.0 **** -0.24
30397 H 78.80299915309438 58.3415165696088 66.37480643601685 H 0.0 **** 0.06
30398 H 78.29792578113538 57.46170077807349 64.91222915046677 H 0.0 **** 0.06
30399 H 79.48987527704028 56.73918844139102 66.01927322242115 H 0.0 **** 0.06
30400 H 79.94015261720818 58.14186158237811 65.01993110611623 H 0.0 **** 0.06
30401 C 58.595546948009144 15.362795549786057 25.997939050025764 C 0.0 **** -0.24
30402 H 58.68510556230295 14.504868786904098 25.33288168684288 H 0.0 **** 0.06
30403 H 57.55164815215366 15.673689813002255 26.051348730646254 H 0.0 **** 0.06
30404 H 59.2009182886886 16.18490861053712 25.61377602880617 H 0.0 **** 0.06
30405 H 58.94568493949144 15.089290286915173 26.992676533348003 H 0.0 **** 0.06
30406 C 99.06672998755883 122.6664156784799 10.535804517790805 C 0.0 **** -0.24
30407 H 99.82240423158612 122.19784869913684 9.905235807216187 H 0.0 **** 0.06
30408 H 98.34486399380768 123.18984100291408 9.908286447998776 H 0.0 **** 0.06
30409 H 99.5457799846904 123.37596935317976 11.210009322971597 H 0.0 **** 0.06
30410 H 98.55336877990405 121.90025542670733 11.118386110081605 H 0.0 **** 0.06
30411 C 118.5270590126008 106.80172607214783 119.28301945503796 C 0.0 **** -0.24
30412 H 118.22664260780897 105.95934053714402 118.66101624908823 H 0.0 **** 0.06
30413 H 117.68594218433677 107.11196891700524 119.90413893407936 H 0.0 **** 0.06
30414 H 118.8344846170888 107.63132245784439 118.64606198083321 H 0.0 **** 0.06
30415 H 119.36010560033552 106.50466307618527 119.92001115154152 H 0.0 **** 0.06
30416 C 106.32437631216945 123.75634327756458 90.1591143959472 C 0.0 **** -0.24
30417 H 105.59012657315498 123.88751683643852 90.95308367136994 H 0.0 **** 0.06
30418 H 107.21238790656636 123.26953829512794 90.56299162749468 H 0.0 **** 0.06
30419 H 106.59731371635172 124.73098059514743 89.75263828595524 H 0.0 **** 0.06
30420 H 105.89896649373358 123.13894735529402 89.36860748740901 H 0.0 **** 0.06
30421 C 113.68047984620176 53.250956842622145 81.93706803851421 C 0.0 **** -0.24
30422 H 113.87984854712039 52.352360507477414 82.52205888622177 H 0.0 **** 0.06
30423 H 112.85593620794265 53.06200334736164 81.25006599788094 H 0.0 **** 0.06
30424 H 114.57180940112335 53.520857847842734 81.37142106816827 H 0.0 **** 0.06
30425 H 113.41444139672546 54.06870237561651 82.60788495344792 H 0.0 **** 0.06
30426 C 69.60734927126668 17.639507504142387 23.359794412947934 C 0.0 **** -0.24
30427 H 69.84712086455804 17.36163444868845 22.33346668022412 H 0.0 **** 0.06
30428 H 69.3537179397261 16.74404712112647 23.927407251340924 H 0.0 **** 0.06
30429 H 68.75927510724144 18.324013101248454 23.36219267220227 H 0.0 **** 0.06
30430 H 70.46892236667111 18.1275869836698 23.81496654600906 H 0.0 **** 0.06
30431 C 49.26397516922236 65.26606717156838 42.54697413715286 C 0.0 **** -0.24
30432 H 50.317471319119775 65.03520857085451 42.70630292458492 H 0.0 **** 0.06
30433 H 48.77760591250724 65.42642417822293 43.508744899732164 H 0.0 **** 0.06
30434 H 48.784459240706056 64.43427872961092 42.03090637657243 H 0.0 **** 0.06
30435 H 49.177545925039226 66.16769704287728 41.93990076623834 H 0.0 **** 0.06
30436 C 116.3274595551573 62.6118084116611 83.60241610576259 C 0.0 **** -0.24
30437 H 116.65059246479652 63.642967884606165 83.45781748092509 H 0.0 **** 0.06
30438 H 116.98739555467259 61.94424632721005 83.04746037138925 H 0.0 **** 0.06
30439 H 115.30603280762271 62.49687650882743 83.24163438851092 H 0.0 **** 0.06
30440 H 116.36907512084058 62.36343928422782 84.66329990483658 H 0.0 **** 0.06
30441 C 108.22526466050124 82.79590780770422 130.4583546149622 C 0.0 **** -0.24
30442 H 108.66096828090156 81.89278727206874 130.03166844146696 H 0.0 **** 0.06
30443 H 108.15783788438807 83.56469687172984 129.68831987624552 H 0.0 **** 0.06
30444 H 108.85538091377992 83.15291279794911 131.27381000323302 H 0.0 **** 0.06
30445 H 107.22930313586278 82.57352612759007 130.83967131577 H 0.0 **** 0.06
30446 C 66.46555115440243 79.66743427798505 105.77775515949463 C 0.0 **** -0.24
30447 H 66.97007210564053 78.84647339914407 106.28778000702033 H 0.0 **** 0.06
30448 H 66.06264618334116 80.36070332532162 106.51633020730799 H 0.0 **** 0.06
30449 H 65.65178369203404 79.27023626468022 105.16985072208729 H 0.0 **** 0.06
30450 H 67.17588262484641 80.18920389441325 105.13803567050587 H 0.0 **** 0.06
30451 C 64.76778101687675 61.573182677518815 47.967969600665164 C 0.0 **** -0.24
30452 H 65.12341324094427 61.30814844480861 48.96368544867829 H 0.0 **** 0.06
30453 H 65.58833297362143 62.00268880581561 47.39200908073184 H 0.0 **** 0.06
30454 H 63.960967298892555 62.30069117867998 48.05213865701403 H 0.0 **** 0.06
30455 H 64.39971048894644 60.67851467803814 47.46434095997014 H 0.0 **** 0.06
30456 C 44.80403231724921 13.946853255880967 88.60201880031927 C 0.0 **** -0.24
30457 H 45.44087091932343 13.252088883609218 88.05494339344324 H 0.0 **** 0.06
30458 H 44.62930750489363 13.563635140245111 89.60756920114935 H 0.0 **** 0.06
30459 H 43.851453087090135 14.053147815353384 88.08256257400916 H 0.0 **** 0.06
30460 H 45.29473530881083 14.917455548150997 88.66387471860787 H 0.0 **** 0.06
30461 C 66.28169229021486 130.882358166932 50.19553261442303 C 0.0 **** -0.24
30462 H 66.87282222082325 130.42182469565822 50.98683329882033 H 0.0 **** 0.06
30463 H 66.27214993458468 131.9631438649014 50.332447269650515 H 0.0 **** 0.06
30464 H 65.26095826029017 130.50097283573425 50.23637120295189 H 0.0 **** 0.06
30465 H 66.72114026483601 130.64187838647737 49.22703353386066 H 0.0 **** 0.06
30466 C 119.16235131897778 19.2509068657551 56.25923412662536 C 0.0 **** -0.24
30467 H 118.75552317349147 18.447112606392523 56.872394862470685 H 0.0 **** 0.06
30468 H 119.02775894885505 20.203224636491484 56.7729843336989 H 0.0 **** 0.06
30469 H 118.64164590360366 19.27712714234559 55.302515890768916 H 0.0 **** 0.06
30470 H 120.22506726492094 19.07610100644615 56.09032521915526 H 0.0 **** 0.06
30471 C 78.25954907286535 54.90176495350104 32.96437574305071 C 0.0 **** -0.24
30472 H 77.45781179026228 54.19983851321277 32.73218800856341 H 0.0 **** 0.06
30473 H 78.50920733592123 55.474960255596926 32.07160177546234 H 0.0 **** 0.06
30474 H 79.13800785124405 54.35068117721744 33.3005056742212 H 0.0 **** 0.06
30475 H 77.93229713535521 55.57936507156367 33.75262931252405 H 0.0 **** 0.06
30476 C 47.24699343820808 126.71617574680846 28.818678321075936 C 0.0 **** -0.24
30477 H 48.0852297765592 126.26152793931335 28.28976269692356 H 0.0 **** 0.06
30478 H 47.18418356934197 126.30024327155874 29.824279917318222 H 0.0 **** 0.06
30479 H 46.323208370317815 126.50876886501058 28.279832398951612 H 0.0 **** 0.06
30480 H 47.399333012424904 127.79388686913377 28.87908421999481 H 0.0 **** 0.06
30481 C 33.73767953787436 75.12869357346601 114.10945015052903 C 0.0 **** -0.24
30482 H 33.752301184836554 74.741834193146 115.12844843520242 H 0.0 **** 0.06
30483 H 34.2727940393622 74.44206425461974 113.45348207326185 H 0.0 **** 0.06
30484 H 34.21967088209084 76.10584293689097 114.08505928025374 H 0.0 **** 0.06
30485 H 32.705036227536986 75.22402652774568 113.77258528630381 H 0.0 **** 0.06
30486 C 43.538934414064386 56.86294686682089 33.17779019884435 C 0.0 **** -0.24
30487 H 43.61462756762785 57.9323722487955 32.983655421406866 H 0.0 **** 0.06
30488 H 43.03656600322495 56.376748460739634 32.341522562504196 H 0.0 **** 0.06
30489 H 42.96686638189368 56.69875278979191 34.09127526900326 H 0.0 **** 0.06
30490 H 44.53860696895731 56.44360161474924 33.29490491812885 H 0.0 **** 0.06
30491 C 105.68624375026928 14.033089254488942 89.4207798617219 C 0.0 **** -0.24
30492 H 105.74515005515212 15.095245185779845 89.6595335529336 H 0.0 **** 0.06
30493 H 104.94201388503888 13.877823319175803 88.63860279679413 H 0.0 **** 0.06
30494 H 105.3982540805701 13.475867895315048 90.31245289581481 H 0.0 **** 0.06
30495 H 106.65864819817995 13.68482568454607 89.0720829095028 H 0.0 **** 0.06
30496 C 31.976101606371664 85.02571160063405 122.90037624065997 C 0.0 **** -0.24
30497 H 32.75733147740674 85.7403742945649 122.64056743028414 H 0.0 **** 0.06
30498 H 31.8340768688671 84.32807081378172 122.07516671473806 H 0.0 **** 0.06
30499 H 31.045326322473684 85.55961650544202 123.09052976430044 H 0.0 **** 0.06
30500 H 32.27002764475095 84.47668868319653 123.79433246259848 H 0.0 **** 0.06
30501 C 43.300681570293904 103.85946638276647 125.80687495321037 C 0.0 **** -0.24
30502 H 42.91954959945113 102.95170328496613 126.27446562830626 H 0.0 **** 0.06
30503 H 43.13124801206925 104.70801131574538 126.47015186944144 H 0.0 **** 0.06
30504 H 42.78228214125045 104.02635242223369 124.86248543003737 H 0.0 **** 0.06
30505 H 44.36947027750398 103.75120707170186 125.62166938278924 H 0.0 **** 0.06
30506 C 69.31947788973525 15.796944404652578 84.72641718260891 C 0.0 **** -0.24
30507 H 69.69701072210957 15.881284024380221 83.7068558469095 H 0.0 **** 0.06
30508 H 68.2300198864661 15.812535010124918 84.71308980119596 H 0.0 **** 0.06
30509 H 69.68826404492354 16.63422205766406 85.31961901942832 H 0.0 **** 0.06
30510 H 69.66586037759853 14.860715786661302 85.1645160701191 H 0.0 **** 0.06
30511 C 109.88366278173514 51.70693732611517 32.659316877008905 C 0.0 **** -0.24
30512 H 109.29847488134567 52.116557496322216 33.482090756044045 H 0.0 **** 0.06
30513 H 109.32084763758444 51.802785170662816 31.731064354375917 H 0.0 **** 0.06
30514 H 110.09287774152581 50.654439505147835 32.85077682430227 H 0.0 **** 0.06
30515 H 110.82195952147693 52.254353524696114 32.574116173704454 H 0.0 **** 0.06
30516 C 107.05608458351372 50.96567015853526 58.68673861760978 C 0.0 **** -0.24
30517 H 107.95536920152547 50.40783756430545 58.42520955111043 H 0.0 **** 0.06
30518 H 106.40078665917287 51.02701374987964 57.81832798906204 H 0.0 **** 0.06
30519 H 107.33244957396488 51.97028736291216 59.00665599373704 H 0.0 **** 0.06
30520 H 106.5368451182449 50.456365002710555 59.49859889284433 H 0.0 **** 0.06
30521 C 101.72203600828804 111.40069325225082 103.03523329856537 C 0.0 **** -0.24
30522 H 101.90739914011618 112.36315321859314 103.51170656176585 H 0.0 **** 0.06
30523 H 102.65429793942478 110.83694857250346 102.98076131192008 H 0.0 **** 0.06
30524 H 101.33491280640101 111.56087305882696 102.03015599233562 H 0.0 **** 0.06
30525 H 100.99284922266108 110.84084130579281 103.62083034229941 H 0.0 **** 0.06
30526 C 42.37964933584007 101.63785704470735 96.61579058037546 C 0.0 **** -0.24
30527 H 42.308995293428524 102.7244299924388 96.65382540604537 H 0.0 **** 0.06
30528 H 41.74315306386282 101.25932380313381 95.81512296663061 H 0.0 **** 0.06
30529 H 42.052883404156375 101.2194257411223 97.5682777430772 H 0.0 **** 0.06
30530 H 43.41275049382293 101.34720260749833 96.42743342541974 H 0.0 **** 0.06
30531 C 10.725285718851012 62.01344384170895 29.219768702049876 C 0.0 **** -0.24
30532 H 10.457117490114854 62.682843493778506 30.03737581938752 H 0.0 **** 0.06
30533 H 11.499221856179702 61.32300234829651 29.555087759738264 H 0.0 **** 0.06
30534 H 11.098168960857038 62.597731833979225 28.3785897111334 H 0.0 **** 0.06
30535 H 9.845646789043997 61.4500205376128 28.90901802227461 H 0.0 **** 0.06
30536 C 97.13449706290683 65.90132408643684 72.88795010118886 C 0.0 **** -0.24
30537 H 97.01262746409813 65.30898138341668 73.79540889050966 H 0.0 **** 0.06
30538 H 98.0620087998598 66.47159929206838 72.9474201702665 H 0.0 **** 0.06
30539 H 96.29259697642729 66.58558088575141 72.78634152247835 H 0.0 **** 0.06
30540 H 97.1696047628254 65.23786410724256 72.02406599266229 H 0.0 **** 0.06
30541 C 30.66020820819628 58.51342330682263 41.50073476556932 C 0.0 **** -0.24
30542 H 31.035362097742166 58.752661256733035 40.50608850330475 H 0.0 **** 0.06
30543 H 29.92450653417589 57.71243510457512 41.42823362100623 H 0.0 **** 0.06
30544 H 30.19352780103509 59.397728316296536 41.935277681783575 H 0.0 **** 0.06
30545 H 31.487223305383623 58.19182802834882 42.132322347460345 H 0.0 **** 0.06
30546 C 126.55447176723646 44.38136301339428 72.29969927838874 C 0.0 **** -0.24
30547 H 126.05153814824973 44.97264839833298 73.0658584783439 H 0.0 **** 0.06
30548 H 126.27464096582145 43.33383689470786 72.40887432671741 H 0.0 **** 0.06
30549 H 127.63338355901934 44.48428209137281 72.41127177511794 H 0.0 **** 0.06
30550 H 126.25580812685578 44.73726242142787 71.3129484529835 H 0.0 **** 0.06
30551 C 28.55261972930039 70.57928568934048 116.88299399159484 C 0.0 **** -0.24
30552 H 29.230392515294042 71.1778251669616 117.49203343139783 H 0.0 **** 0.06
30553 H 28.058503097481434 69.83836137993276 117.51171046858292 H 0.0 **** 0.06
30554 H 29.118424527359075 70.07363269403938 116.10100204448094 H 0.0 **** 0.06
30555 H 27.803741599697467 71.2273961974325 116.42851654714156 H 0.0 **** 0.06
30556 C 120.84388170943566 43.04757605462876 22.806841849237117 C 0.0 **** -0.24
30557 H 120.70740937375676 42.949483178382195 23.883969779615256 H 0.0 **** 0.06
30558 H 120.11776175205145 43.757722530990065 22.41233429741004 H 0.0 **** 0.06
30559 H 120.69957586399407 42.07709684599698 22.332679046331975 H 0.0 **** 0.06
30560 H 121.8531355175815 43.40594666676641 22.600241233332838 H 0.0 **** 0.06
30561 C 88.59834072579429 111.83638510704438 112.80995854823607 C 0.0 **** -0.24
30562 H 87.73612154719439 111.54352402954228 112.21201133465695 H 0.0 **** 0.06
30563 H 88.31139341281084 111.88664251614767 113.86046124687323 H 0.0 **** 0.06
30564 H 88.95202194000996 112.81465645325653 112.4831401169497 H 0.0 **** 0.06
30565 H 89.39349745071496 111.1020849486165 112.68437000681439 H 0.0 **** 0.06
30566 C 41.45891734032938 128.61643377950284 75.00666970223938 C 0.0 **** -0.24
30567 H 40.49181890617963 128.11577539125736 75.03958179901372 H 0.0 **** 0.06
30568 H 41.40784667009619 129.54354025092638 75.57807400469949 H 0.0 **** 0.06
30569 H 41.717228281892886 128.84068366040734 73.9720509891655 H 0.0 **** 0.06
30570 H 42.21982240162364 127.96528261141592 75.43780791177312 H 0.0 **** 0.06
30571 C 124.1325504268256 102.38423494352463 120.63787234822837 C 0.0 **** -0.24
30572 H 125.02375754691971 101.96220263660683 120.17418815680995 H 0.0 **** 0.06
30573 H 123.47890906686258 102.79145228634411 119.86624906010616 H 0.0 **** 0.06
30574 H 124.42293398306184 103.17981950586062 121.32423091254104 H 0.0 **** 0.06
30575 H 123.60549411539787 101.60440754658867 121.18738243257813 H 0.0 **** 0.06
30576 C 49.572318880915105 58.728341897102524 28.67254098357006 C 0.0 **** -0.24
30577 H 50.613363550731805 58.750600699596234 28.996585851420946 H 0.0 **** 0.06
30578 H 49.20011100948861 59.74845795646786 28.57556148951562 H 0.0 **** 0.06
30579 H 48.97412564788337 58.19070218123956 29.408269103385862 H 0.0 **** 0.06
30580 H 49.503598878359355 58.224050925569486 27.70869730190941 H 0.0 **** 0.06
30581 C 61.03065279487089 35.13585660455777 130.6853333168512 C 0.0 **** -0.24
30582 H 60.49670198433131 34.23685690717963 130.99568735788708 H 0.0 **** 0.06
30583 H 61.81052051054593 34.86656595907692 129.97296517588555 H 0.0 **** 0.06
30584 H 61.482221078858856 35.60817545295993 131.5578873116333 H 0.0 **** 0.06
30585 H 60.332750353273696 35.82972620648695 130.2171190418446 H 0.0 **** 0.06
30586 C 76.47956506411805 81.51815354195776 115.72837757235038 C 0.0 **** -0.24
30587 H 76.07953852917535 80.90652210735664 116.53750071991058 H 0.0 **** 0.06
30588 H 75.93659543032862 82.46242329966043 115.68409338752502 H 0.0 **** 0.06
30589 H 76.36606792731766 80.98876642508458 114.78319660534379 H 0.0 **** 0.06
30590 H 77.53661556119158 81.7150524035008 115.91001075017712 H 0.0 **** 0.06
30591 C 62.16323605299108 36.94646701960572 125.78813524554829 C 0.0 **** -0.24
30592 H 61.625616907611416 36.00519153521833 125.89677002716007 H 0.0 **** 0.06
30593 H 63.20974637481095 36.741983158917165 125.5596379182706 H 0.0 **** 0.06
30594 H 62.09824255694747 37.51156758611849 126.71868816858029 H 0.0 **** 0.06
30595 H 61.72184430290085 37.527007607679764 124.97875131064217 H 0.0 **** 0.06
30596 C 2.155932537518197 94.80889442374442 9.688622735132071 C 0.0 **** -0.24
30597 H 1.774086612253086 95.38833698599129 8.848201731755069 H 0.0 **** 0.06
30598 H 1.8939556750462998 93.75925394478213 9.554848792921177 H 0.0 **** 0.06
30599 H 1.7153166080195206 95.17904546317145 10.614085999806093 H 0.0 **** 0.06
30600 H 3.24008515434042 94.90972863266923 9.73621495681192 H 0.0 **** 0.06
30601 C 48.98576136827472 69.71535994914866 103.96840549230083 C 0.0 **** -0.24
30602 H 48.51012769015972 70.63968506469305 104.29610680220497 H 0.0 **** 0.06
30603 H 49.166812550731265 69.76004202837306 102.89458640259994 H 0.0 **** 0.06
30604 H 48.332225256762 68.87164112709746 104.19252294207234 H 0.0 **** 0.06
30605 H 49.93357966206605 69.58874639994815 104.49148001365444 H 0.0 **** 0.06
30606 C 27.474400623530897 27.601827357165064 66.57244556018858 C 0.0 **** -0.24
30607 H 27.38991859338479 27.434443685989166 67.64624021827004 H 0.0 **** 0.06
30608 H 26.486693404883106 27.53905482492239 66.11658211006642 H 0.0 **** 0.06
30609 H 28.126325871466186 26.844997221812775 66.13719271537587 H 0.0 **** 0.06
30610 H 27.89572134483489 28.59138954068146 66.39156969009011 H 0.0 **** 0.06
30611 C 119.09140260049739 121.82747517578892 2.708519058206832 C 0.0 **** -0.24
30612 H 119.47345608527863 121.98069363980369 3.7172091192407493 H 0.0 **** 0.06
30613 H 118.35920141302174 122.60082871896765 2.4760084207635487 H 0.0 **** 0.06
30614 H 118.61769104792076 120.8477552999075 2.644528330959929 H 0.0 **** 0.06
30615 H 119.91472471927568 121.87978628853887 1.996223685541679 H 0.0 **** 0.06
30616 C 109.15600831866644 103.63435330793621 112.21587460425093 C 0.0 **** -0.24
30617 H 108.98895772750458 103.98383425510933 113.23481260383517 H 0.0 **** 0.06
30618 H 108.1975585874996 103.50308082628474 111.71501829707671 H 0.0 **** 0.06
30619 H 109.68802974399462 102.68318462951821 112.2408512746481 H 0.0 **** 0.06
30620 H 109.75234662008612 104.36894589460614 111.67459386500258 H 0.0 **** 0.06
30621 C 38.64658291540928 11.996136867707037 90.26798777340548 C 0.0 **** -0.24
30622 H 39.57317067554578 12.11848485888747 90.82709997296617 H 0.0 **** 0.06
30623 H 37.93301534805613 11.427930216744528 90.86508745032607 H 0.0 **** 0.06
30624 H 38.85084998250397 11.461735698934262 89.33958813469621 H 0.0 **** 0.06
30625 H 38.22873398229399 12.976099536058442 90.03724351883108 H 0.0 **** 0.06
30626 C 1.3705974774451875 91.20198318425298 8.163563369601661 C 0.0 **** -0.24
30627 H 2.37130571037153 90.77781830713127 8.080933698984069 H 0.0 **** 0.06
30628 H 0.6899121737380369 90.65839208268599 7.507407312041153 H 0.0 **** 0.06
30629 H 1.3962850362684094 92.25215746703545 7.871644492920126 H 0.0 **** 0.06
30630 H 1.0257169749352784 91.1190112796041 9.1941993713219 H 0.0 **** 0.06
30631 C 66.08839182214328 106.34070852150705 76.33212612404319 C 0.0 **** -0.24
30632 H 66.01172111135791 107.35758185856628 76.71916330305146 H 0.0 **** 0.06
30633 H 65.8916887963401 105.63129597001273 77.1364887716776 H 0.0 **** 0.06
30634 H 67.09117983765167 106.1758881965406 75.93934391220547 H 0.0 **** 0.06
30635 H 65.35764380486619 106.19957806801051 75.53549382234662 H 0.0 **** 0.06
30636 C 20.561793135712946 97.52941368198614 56.44981560408496 C 0.0 **** -0.24
30637 H 20.357261855740205 96.46050515194389 56.388717476543604 H 0.0 **** 0.06
30638 H 19.777876944643154 98.01545187041268 57.03145536212389 H 0.0 **** 0.06
30639 H 20.58371657680209 97.95187251799868 55.44486167080805 H 0.0 **** 0.06
30640 H 21.525869371173883 97.68834120328732 56.93181816081852 H 0.0 **** 0.06
30641 C 100.79144488169885 53.58268832756434 24.67062921237934 C 0.0 **** -0.24
30642 H 99.7175468851674 53.58620984197543 24.861593222217934 H 0.0 **** 0.06
30643 H 100.98512725866931 53.12609126479967 23.70030468090458 H 0.0 **** 0.06
30644 H 101.29665969412912 53.01192390280846 25.44871811550891 H 0.0 **** 0.06
30645 H 101.1630429717328 54.60709712217047 24.671586776981925 H 0.0 **** 0.06
30646 C 11.224989685905769 52.7246151665849 45.866734381844914 C 0.0 **** -0.24
30647 H 11.114010069359892 53.79301473841413 46.05163257682552 H 0.0 **** 0.06
30648 H 10.567283171769844 52.42657901573244 45.04980102972861 H 0.0 **** 0.06
30649 H 10.960399521419703 52.17109189082994 46.76720173234088 H 0.0 **** 0.06
30650 H 12.259509710689201 52.50844580921287 45.5982448107661 H 0.0 **** 0.06
30651 C 88.12152908692633 30.218205777171477 113.51038391152109 C 0.0 **** -0.24
30652 H 87.71904994498338 30.801509714264455 114.33838542787838 H 0.0 **** 0.06
30653 H 88.91033707447042 30.7846952816422 113.015200023659 H 0.0 **** 0.06
30654 H 87.32591296550096 30.002977350892593 112.79768542353143 H 0.0 **** 0.06
30655 H 88.53033346182424 29.281782366878986 113.89234169717817 H 0.0 **** 0.06
30656 C 48.703975442722 101.22484996853635 59.25621436874992 C 0.0 **** -0.24
30657 H 47.675964522615004 100.87948758678016 59.36602258852429 H 0.0 **** 0.06
30658 H 48.75578540290695 102.28954522620698 59.485402597714184 H 0.0 **** 0.06
30659 H 49.03527219442911 101.05708227247025 58.231117316230254 H 0.0 **** 0.06
30660 H 49.34749832743532 100.67366747765621 59.94134252079195 H 0.0 **** 0.06
30661 C 71.02731907604783 109.99626808238315 23.835711777391964 C 0.0 **** -0.24
30662 H 70.72135472550144 111.03561511334578 23.954425830961583 H 0.0 **** 0.06
30663 H 71.48361000106945 109.64492085066371 24.762336461910166 H 0.0 **** 0.06
30664 H 71.74847544371198 109.91977976494394 23.023035087151413 H 0.0 **** 0.06
30665 H 70.15470629243742 109.38432810461919 23.60613849384538 H 0.0 **** 0.06
30666 C 125.09462765551784 0.6095678738813888 84.90540877959276 C 0.0 **** -0.24
30667 H 125.91954040708228 0.795226264722686 85.59323316202598 H 0.0 **** 0.06
30668 H 125.48870130772629 0.43774210078026954 83.90345151231266 H 0.0 **** 0.06
30669 H 124.43075299447557 1.4736321909137189 84.89234253231184 H 0.0 **** 0.06
30670 H 124.54050602865202 -0.27030886902900875 85.23292462935149 H 0.0 **** 0.06
30671 C 43.463358286865954 36.91157549303398 126.42166385044345 C 0.0 **** -0.24
30672 H 43.77384158683275 35.8706023847443 126.50911414405465 H 0.0 **** 0.06
30673 H 43.21641095971895 37.1304018424193 125.38217330736444 H 0.0 **** 0.06
30674 H 44.27620041153316 37.56183864670436 126.7468930766675 H 0.0 **** 0.06
30675 H 42.588061388415134 37.08299971032858 127.04768742002875 H 0.0 **** 0.06
30676 C 63.25202781590497 20.178537728778252 119.63368834427257 C 0.0 **** -0.24
30677 H 63.57329937607133 19.736377658052113 120.5773872329496 H 0.0 **** 0.06
30678 H 63.34374703209235 19.439527000587297 118.83755631129961 H 0.0 **** 0.06
30679 H 63.87963262937251 21.038825751912036 119.40448953052308 H 0.0 **** 0.06
30680 H 62.21281438065202 20.49700857089681 119.71644845491781 H 0.0 **** 0.06
30681 C 84.74419415405379 54.243645940814474 93.01263814478384 C 0.0 **** -0.24
30682 H 85.17011144270197 55.236982457329646 92.86971675783221 H 0.0 **** 0.06
30683 H 83.87536370831839 54.31213612375234 93.66827851484342 H 0.0 **** 0.06
30684 H 85.49102746152016 53.590228862594245 93.46505683891328 H 0.0 **** 0.06
30685 H 84.44101153284902 53.836377810694444 92.04789182499971 H 0.0 **** 0.06
30686 C 83.03054706275913 84.85579514808514 118.75912068756338 C 0.0 **** -0.24
30687 H 84.06580101614219 85.15639592710218 118.59799064150334 H 0.0 **** 0.06
30688 H 82.7731016536014 84.05300650915227 118.0667849001031 H 0.0 **** 0.06
30689 H 82.37395780832905 85.70871283312421 118.58650997447842 H 0.0 **** 0.06
30690 H 82.9096449186433 84.50542277893014 119.78353235828864 H 0.0 **** 0.06
30691 C 126.27100418699102 91.13007511364168 28.16881165605386 C 0.0 **** -0.24
30692 H 125.95973112900238 90.90884548087993 27.147524700777097 H 0.0 **** 0.06
30693 H 126.61377943048056 90.21368203840211 28.649632156581703 H 0.0 **** 0.06
30694 H 125.4269335594909 91.53820067456334 28.72448220103911 H 0.0 **** 0.06
30695 H 127.08166862543817 91.85800037388606 28.151392942217115 H 0.0 **** 0.06
30696 C 56.11971093089494 113.28780811567748 10.514641845340687 C 0.0 **** -0.24
30697 H 57.08310851537544 113.54297856906379 10.071899630538251 H 0.0 **** 0.06
30698 H 55.43662745253732 114.13044533112725 10.40942334644815 H 0.0 **** 0.06
30699 H 56.255055415125184 113.05842739753336 11.57096648815661 H 0.0 **** 0.06
30700 H 55.70602276575107 112.41758154770906 10.004308292500433 H 0.0 **** 0.06
30701 C 92.18276827804003 45.44789212059972 33.40618540597404 C 0.0 **** -0.24
30702 H 91.14319740502235 45.13269565763204 33.5020713986267 H 0.0 **** 0.06
30703 H 92.2175047614839 46.4904745347726 33.09217954251682 H 0.0 **** 0.06
30704 H 92.68229309951269 44.826219937806854 32.662974713014876 H 0.0 **** 0.06
30705 H 92.68460850787046 45.33954798003819 34.36773020642113 H 0.0 **** 0.06
30706 C 121.51836568641981 117.07373939352459 57.34976981516613 C 0.0 **** -0.24
30707 H 120.82074633275046 117.6034021792816 57.99799585738897 H 0.0 **** 0.06
30708 H 120.96175355590789 116.4286616659929 56.66914643022187 H 0.0 **** 0.06
30709 H 122.18989129028796 116.46688428935838 57.9578411630453 H 0.0 **** 0.06
30710 H 122.09948025119722 117.79434944194026 56.774939882740696 H 0.0 **** 0.06
30711 C 111.65354629967374 113.16618143654563 125.1131679375095 C 0.0 **** -0.24
30712 H 112.04450385701494 114.12462662269775 124.7712564021192 H 0.0 **** 0.06
30713 H 110.86272380245845 112.83592070105897 124.43766350091053 H 0.0 **** 0.06
30714 H 111.24935819161266 113.27613753791803 126.1191436141365 H 0.0 **** 0.06
30715 H 112.45541446052073 112.4288426959582 125.1216783608441 H 0.0 **** 0.06
30716 C 108.12122742278272 107.44218670157554 29.296613837209634 C 0.0 **** -0.24
30717 H 107.49621339184417 108.02916015881904 28.624500732951077 H 0.0 **** 0.06
30718 H 109.14707674394526 107.80857958173164 29.25056025445727 H 0.0 **** 0.06
30719 H 108.09431873323774 106.39485692773968 28.996003240842867 H 0.0 **** 0.06
30720 H 107.74619351948276 107.53699684587735 30.316419291071043 H 0.0 **** 0.06
30721 C 76.32105187140479 80.79243151637789 120.3181072970363 C 0.0 **** -0.24
30722 H 76.57987063594305 80.02397519623906 121.04758059129085 H 0.0 **** 0.06
30723 H 75.59264111640357 80.3922298964647 119.61306269567694 H 0.0 **** 0.06
30724 H 77.21866105511072 81.09786025310771 119.77994975715413 H 0.0 **** 0.06
30725 H 75.89479696841988 81.65339392938083 120.83349644825374 H 0.0 **** 0.06
30726 C 87.11794559172938 105.88195081504219 114.97634511865733 C 0.0 **** -0.24
30727 H 88.03781151686425 106.24874219050383 114.52195411565519 H 0.0 **** 0.06
30728 H 86.34975534580292 105.77625824873539 114.20884761227715 H 0.0 **** 0.06
30729 H 86.77963516651832 106.58847297555374 115.73395513341674 H 0.0 **** 0.06
30730 H 87.30304766368212 104.91352327585545 115.4406464980469 H 0.0 **** 0.06
30731 C 66.54548184671614 109.0159057289332 65.34924875444952 C 0.0 **** -0.24
30732 H 66.05154053179783 108.32314760950433 66.03205820659466 H 0.0 **** 0.06
30733 H 66.12451526836897 108.90280350978915 64.35007333851827 H 0.0 **** 0.06
30734 H 67.61364945432886 108.79872003214231 65.32195682833664 H 0.0 **** 0.06
30735 H 66.39087565984887 110.03778025126925 65.6955172244513 H 0.0 **** 0.06
30736 C 39.00242469813367 17.931912765343895 26.106822202872564 C 0.0 **** -0.24
30737 H 38.17134404229725 18.408402859495 25.587748459117705 H 0.0 **** 0.06
30738 H 39.34131572728057 17.06700213992397 25.535319770631958 H 0.0 **** 0.06
30739 H 38.67629357842643 17.60977726345925 27.09545441386271 H 0.0 **** 0.06
30740 H 39.82204679026592 18.64428696461485 26.20879858688835 H 0.0 **** 0.06
30741 C 94.30526861887584 5.656378233534355 95.16737106573814 C 0.0 **** -0.24
30742 H 94.96881178785573 6.297462248104523 95.74863200284011 H 0.0 **** 0.06
30743 H 93.41305589525965 6.217212214850804 94.88699412002813 H 0.0 **** 0.06
30744 H 94.01801922111649 4.792636346754136 95.7673345891576 H 0.0 **** 0.06
30745 H 94.82152758007258 5.319325464072762 94.26842691158674 H 0.0 **** 0.06
30746 C 57.38704142225053 18.732900028495322 129.02861450504514 C 0.0 **** -0.24
30747 H 58.17218392466626 18.3518557588923 128.37411309772406 H 0.0 **** 0.06
30748 H 57.83400748335583 19.111734363587715 129.9477561465529 H 0.0 **** 0.06
30749 H 56.691412834101655 17.928324876886194 129.26703464137435 H 0.0 **** 0.06
30750 H 56.85360676737572 19.538123920791378 128.5240410316893 H 0.0 **** 0.06
30751 C 65.46390618783897 120.29978797213418 56.139788156923515 C 0.0 **** -0.24
30752 H 66.24816220186825 121.00513543926877 56.414294832379284 H 0.0 **** 0.06
30753 H 65.26977829489859 119.62826756863778 56.97695914042659 H 0.0 **** 0.06
30754 H 65.78411649885196 119.71893274623939 55.27488294446124 H 0.0 **** 0.06
30755 H 64.55376252929524 120.84583526345689 55.89301233084477 H 0.0 **** 0.06
30756 C 1.58081890133775 16.11361596264709 84.70871709524947 C 0.0 **** -0.24
30757 H 2.2182807609718225 15.82540328537781 83.87220089080053 H 0.0 **** 0.06
30758 H 0.7081736147134734 16.64684317463078 84.33386870473271 H 0.0 **** 0.06
30759 H 2.1406640020633745 16.761163373403193 85.38387508455551 H 0.0 **** 0.06
30760 H 1.2598271688254385 15.220712240617377 85.24427910530684 H 0.0 **** 0.06
30761 C 85.08659242814284 106.93620794018406 68.32994146110576 C 0.0 **** -0.24
30762 H 84.21044112210748 106.8654708155722 68.97292630098866 H 0.0 **** 0.06
30763 H 85.53773831734244 105.94917455850556 68.22072585376091 H 0.0 **** 0.06
30764 H 85.81029573160868 107.61848680277808 68.77640599347052 H 0.0 **** 0.06
30765 H 84.79066337042275 107.31074518562818 67.35035824518994 H 0.0 **** 0.06
30766 C 69.59894686371335 94.54903105900382 64.17400402829833 C 0.0 **** -0.24
30767 H 68.90094479366 94.05104330347706 63.50125016686212 H 0.0 **** 0.06
30768 H 69.0610668939314 94.9172040233475 65.04774385595596 H 0.0 **** 0.06
30769 H 70.06797554875074 95.38591052606398 63.65566497729321 H 0.0 **** 0.06
30770 H 70.3659810713641 93.84119532956959 64.48981667921282 H 0.0 **** 0.06
30771 C 48.4392668094539 64.56414356078685 90.18680235461758 C 0.0 **** -0.24
30772 H 48.50074445698169 63.606184535495345 89.66920932419339 H 0.0 **** 0.06
30773 H 49.3982189575982 65.07666749520192 90.11523124209145 H 0.0 **** 0.06
30774 H 48.194648521619 64.39524617167 91.23568893506157 H 0.0 **** 0.06
30775 H 47.66392057561262 65.17634837309448 89.72657313307292 H 0.0 **** 0.06
30776 C 78.80998369148617 76.72182036153282 126.00067545266648 C 0.0 **** -0.24
30777 H 79.12799138840026 77.69050989485117 125.61679774773285 H 0.0 **** 0.06
30778 H 79.12476158118429 75.93713344829018 125.31045014673606 H 0.0 **** 0.06
30779 H 77.72435989180477 76.70694351682846 126.09646223464517 H 0.0 **** 0.06
30780 H 79.2627238187759 76.55056478946449 126.97688103028923 H 0.0 **** 0.06
30781 C 106.04946174685449 20.344571661434912 115.24357826572444 C 0.0 **** -0.24
30782 H 105.02512022507756 20.052991623347566 115.47780263832055 H 0.0 **** 0.06
30783 H 106.46612222531166 19.651104605906937 114.51323728581272 H 0.0 **** 0.06
30784 H 106.65004169097688 20.32044359871942 116.15215405422052 H 0.0 **** 0.06
30785 H 106.05436051350165 21.353367805373267 114.83119883847675 H 0.0 **** 0.06
30786 C 73.48779937121132 57.737563791673566 11.617564208165149 C 0.0 **** -0.24
30787 H 72.40258424124055 57.714498526334836 11.712118596686096 H 0.0 **** 0.06
30788 H 73.84031556190098 58.762529995142785 11.733327300405037 H 0.0 **** 0.06
30789 H 73.77535553776065 57.363319406281704 10.63567521706021 H 0.0 **** 0.06
30790 H 73.93286512130662 57.11025429170901 12.390504562468308 H 0.0 **** 0.06
30791 C 74.56699055372061 16.572968179282753 51.43371062919158 C 0.0 **** -0.24
30792 H 75.03508206694632 17.44671988582209 51.887266325088945 H 0.0 **** 0.06
30793 H 73.54477418146655 16.478355027987845 51.80207809761734 H 0.0 **** 0.06
30794 H 75.13242974465061 15.680318479848182 51.696941285222096 H 0.0 **** 0.06
30795 H 74.55360915728895 16.68907697651676 50.350283141998375 H 0.0 **** 0.06
30796 C 6.424179819906499 1.6110725139637907 35.29366896523926 C 0.0 **** -0.24
30797 H 7.39753244479823 1.235230755935902 34.977341373009565 H 0.0 **** 0.06
30798 H 5.775713619649167 1.7144376693563572 34.42362430820713 H 0.0 **** 0.06
30799 H 6.547894779238874 2.5818923489475196 35.77331353434368 H 0.0 **** 0.06
30800 H 5.977303362822738 0.9106092233115533 35.99966834076983 H 0.0 **** 0.06
30801 C 84.6049195750439 40.183945047899726 41.46969315548506 C 0.0 **** -0.24
30802 H 84.57711514992735 39.95872125343968 40.403495877453 H 0.0 **** 0.06
30803 H 84.69467575373618 41.26122528519784 41.61126864071292 H 0.0 **** 0.06
30804 H 85.46079729116215 39.684137294690316 41.924365640016646 H 0.0 **** 0.06
30805 H 83.68691208354684 39.83064177007725 41.93871711848303 H 0.0 **** 0.06
30806 C 113.32448072713336 54.512193205458004 78.5152371523705 C 0.0 **** -0.24
30807 H 114.26836952512949 54.62697320020618 79.04701049814042 H 0.0 **** 0.06
30808 H 113.17950931673201 53.46251091914928 78.25690027790029 H 0.0 **** 0.06
30809 H 113.34628374942938 55.10995633110775 77.60422874254027 H 0.0 **** 0.06
30810 H 112.50543979189936 54.84658391271523 79.15118857640019 H 0.0 **** 0.06
30811 C 100.60661070381059 78.21623586368429 123.9878770491286 C 0.0 **** -0.24
30812 H 100.09132940752352 77.34535147689877 124.39374780789191 H 0.0 **** 0.06
30813 H 101.61289102607986 78.26739204054047 124.40468093014623 H 0.0 **** 0.06
30814 H 100.05712253375506 79.11878308837879 124.25238534350532 H 0.0 **** 0.06
30815 H 100.66583820421121 78.1301939831448 122.90353471863376 H 0.0 **** 0.06
30816 C 48.49990452268523 122.57786621357411 119.70572151559239 C 0.0 **** -0.24
30817 H 48.67951961049464 123.38470704820688 118.9938936846125 H 0.0 **** 0.06
30818 H 49.26447746290705 122.60200032079686 120.48206565338444 H 0.0 **** 0.06
30819 H 48.539609767219844 121.62042756296566 119.18532623503826 H 0.0 **** 0.06
30820 H 47.51676083606017 122.70453862745586 120.15807979473993 H 0.0 **** 0.06
30821 C 125.01499371405663 77.20927810578925 69.21129726394956 C 0.0 **** -0.24
30822 H 124.62522799526056 77.43480061408533 68.2184892404399 H 0.0 **** 0.06
30823 H 124.30066762627541 77.54018254985877 69.96608003708148 H 0.0 **** 0.06
30824 H 125.96263654525782 77.72801948133807 69.35608993783569 H 0.0 **** 0.06
30825 H 125.17120494068266 76.13506390280017 69.30471198628298 H 0.0 **** 0.06
30826 C 11.274139692334813 111.6352500717488 4.397762678973322 C 0.0 **** -0.24
30827 H 10.803555515596202 112.61097110674226 4.277369751357298 H 0.0 **** 0.06
30828 H 10.555718488290097 110.85296829574091 4.149458916924175 H 0.0 **** 0.06
30829 H 11.60057408710827 111.51436114344202 5.4309165635986005 H 0.0 **** 0.06
30830 H 12.135394833700161 111.56315474375856 3.7330572153628623 H 0.0 **** 0.06
30831 C 82.23093628967531 38.87907979087665 82.16675924545262 C 0.0 **** -0.24
30832 H 81.5041111528921 38.88667115086162 81.35384343132277 H 0.0 **** 0.06
30833 H 82.05960371644152 39.73747872938579 82.81612960913225 H 0.0 **** 0.06
30834 H 83.2380268442334 38.93154860944083 81.75282915478763 H 0.0 **** 0.06
30835 H 82.12280133220989 37.95957514650993 82.74216824729747 H 0.0 **** 0.06
30836 C 81.36464420629358 90.6611942993591 13.491493748977689 C 0.0 **** -0.24
30837 H 80.46083311252444 91.14670310893035 13.121935591458623 H 0.0 **** 0.06
30838 H 81.23726599760408 90.41336933897264 14.546095639324562 H 0.0 **** 0.06
30839 H 82.21234808302172 91.33598974017684 13.37569358245085 H 0.0 **** 0.06
30840 H 81.54452818741481 89.74953112589367 12.922853783385165 H 0.0 **** 0.06
30841 C 110.99367968702391 19.179020971418367 18.755570742624165 C 0.0 **** -0.24
30842 H 111.8622784782187 19.634618888446596 18.279605224855032 H 0.0 **** 0.06
30843 H 111.26877769800726 18.20177897985323 19.152898905470387 H 0.0 **** 0.06
30844 H 110.19773758190031 19.061238788732695 18.020375543013877 H 0.0 **** 0.06
30845 H 110.64722513314595 19.81791359130291 19.567397008392177 H 0.0 **** 0.06
30846 C 62.766821607936265 45.86109682186003 2.418231933484094 C 0.0 **** -0.24
30847 H 62.99286530328726 46.83923719977406 2.843376787047305 H 0.0 **** 0.06
30848 H 63.44507197618043 45.66108700578519 1.5878169373478954 H 0.0 **** 0.06
30849 H 61.73864364286413 45.85113244655551 2.0582830748374477 H 0.0 **** 0.06
30850 H 62.89189831443804 45.09501602640961 3.1829727131089953 H 0.0 **** 0.06
30851 C 123.6165203069337 67.44020744543565 115.88126309536536 C 0.0 **** -0.24
30852 H 124.63747802686335 67.73540765467084 116.12334498270485 H 0.0 **** 0.06
30853 H 123.30032603755613 66.64206425040305 116.55258497829449 H 0.0 **** 0.06
30854 H 123.57518360413275 67.0864632512311 114.85141419662695 H 0.0 **** 0.06
30855 H 122.95321474916803 68.29823481523087 115.99727311901609 H 0.0 **** 0.06
30856 C 17.86046976669516 93.8842657915535 101.67066558348654 C 0.0 **** -0.24
30857 H 16.79074356244115 93.91613536708319 101.87865999470455 H 0.0 **** 0.06
30858 H 18.252645024624115 94.89985780354547 101.62449350986068 H 0.0 **** 0.06
30859 H 18.029896481297158 93.38474246310486 100.71634983403953 H 0.0 **** 0.06
30860 H 18.368178972283488 93.33353219426871 102.4630394746965 H 0.0 **** 0.06
30861 C 125.46583842367552 94.8160315138332 110.61689633599747 C 0.0 **** -0.24
30862 H 125.32212395820054 93.7448188478995 110.47245916169277 H 0.0 **** 0.06
30863 H 126.11080517186923 94.9829229475859 111.48028829717344 H 0.0 **** 0.06
30864 H 124.50044241133394 95.2920184723881 110.7857257344103 H 0.0 **** 0.06
30865 H 125.93097562242038 95.24270508786174 109.7276103412562 H 0.0 **** 0.06
30866 C 57.99528288202589 3.7435399494871078 47.00813339002004 C 0.0 **** -0.24
30867 H 58.310838537162056 4.256702408005733 46.09922886226187 H 0.0 **** 0.06
30868 H 58.86781839924629 3.5305998516103863 47.6263686194118 H 0.0 **** 0.06
30869 H 57.499840088626115 2.809077556023432 46.7433259454307 H 0.0 **** 0.06
30870 H 57.30277873902372 4.377675936486174 47.56138108604883 H 0.0 **** 0.06
30871 C 0.5522618975031719 11.671840417108022 73.59891531749315 C 0.0 **** -0.24
30872 H 0.5575749323999162 12.31555134679867 72.71898605220039 H 0.0 **** 0.06
30873 H 1.3302475363278745 11.996399551699692 74.2905627945258 H 0.0 **** 0.06
30874 H 0.741569171621336 10.64197288429692 73.29712058715751 H 0.0 **** 0.06
30875 H -0.4187900169316663 11.734694784731644 74.08891829264519 H 0.0 **** 0.06
30876 C 44.81781142668797 92.71842830644067 106.23106552890084 C 0.0 **** -0.24
30877 H 45.71619650908275 92.2190865739788 106.59428662194273 H 0.0 **** 0.06
30878 H 44.218362411875404 92.01274581152617 105.65680991649657 H 0.0 **** 0.06
30879 H 45.10165086359578 93.55750564939055 105.59576964300709 H 0.0 **** 0.06
30880 H 44.237980787834715 93.08389048800333 107.0788428083593 H 0.0 **** 0.06
30881 C 1.9553784643630365 118.08978605452882 73.90788887983962 C 0.0 **** -0.24
30882 H 2.5205077217582357 118.47521263652683 74.75631962114102 H 0.0 **** 0.06
30883 H 2.621105409671543 117.52234990252208 73.25649698948007 H 0.0 **** 0.06
30884 H 1.5239790738386318 118.92125434311706 73.35119912926746 H 0.0 **** 0.06
30885 H 1.1573226150221103 117.44041958964823 74.26736976688552 H 0.0 **** 0.06
30886 C 90.55534610214556 70.92329135548383 71.18034708296904 C 0.0 **** -0.24
30887 H 91.07693618443983 71.87907675046998 71.20921644471827 H 0.0 **** 0.06
30888 H 91.26938650712464 70.11396018091662 71.33166066723402 H 0.0 **** 0.06
30889 H 90.07021932085678 70.80288144599996 70.21154114376736 H 0.0 **** 0.06
30890 H 89.80267962726117 70.89610382230865 71.96909581115787 H 0.0 **** 0.06
30891 C 60.702296058645246 56.670870378790624 59.56151891994108 C 0.0 **** -0.24
30892 H 59.67415317545206 56.62360013077435 59.920123429456126 H 0.0 **** 0.06
30893 H 61.37860154627643 56.34993561134408 60.35381194204726 H 0.0 **** 0.06
30894 H 60.939467472082725 57.69486627209629 59.27263380384147 H 0.0 **** 0.06
30895 H 60.81626262009739 56.014196436672975 58.69819076278172 H 0.0 **** 0.06
30896 C 7.76825052695753 128.43902628472017 84.95096293555888 C 0.0 **** -0.24
30897 H 7.9153438947252255 129.08969042968832 85.81312892538854 H 0.0 **** 0.06
30898 H 6.722523430477054 128.13329788598153 84.90130880541845 H 0.0 **** 0.06
30899 H 8.400630763351217 127.55667151390287 85.04990621542294 H 0.0 **** 0.06
30900 H 8.03393624690861 128.97644658317043 84.04080307389613 H 0.0 **** 0.06
30901 C 15.48617091349351 91.72685910968687 67.92559701221039 C 0.0 **** -0.24
30902 H 14.950682976650285 90.8898611431483 67.47961445933579 H 0.0 **** 0.06
30903 H 14.800310378352606 92.56169711833593 68.0705118481695 H 0.0 **** 0.06
30904 H 16.29677932804279 92.033339175988 67.26311792791128 H 0.0 **** 0.06
30905 H 15.898516788741404 91.42360337650894 68.88763093860904 H 0.0 **** 0.06
30906 C 17.283617176022815 24.04955990383897 44.7320176263501 C 0.0 **** -0.24
30907 H 18.12123999159924 23.702317458258307 45.337600996523065 H 0.0 **** 0.06
30908 H 17.66308580446656 24.579399216440038 43.85836419015847 H 0.0 **** 0.06
30909 H 16.66206912854161 24.72201633538245 45.32460511375635 H 0.0 **** 0.06
30910 H 16.688864437618427 23.194922583623452 44.41069433037791 H 0.0 **** 0.06
30911 C 67.01539739195726 9.328934113201797 46.157705966966944 C 0.0 **** -0.24
30912 H 67.94308699470828 8.85126277465585 45.84041172101044 H 0.0 **** 0.06
30913 H 66.86048672642582 10.23994090022802 45.580060087954266 H 0.0 **** 0.06
30914 H 67.07778412853749 9.575496360374842 47.217302770199296 H 0.0 **** 0.06
30915 H 66.18055889230867 8.646438730789981 45.991584541584885 H 0.0 **** 0.06
30916 C 124.80640077681323 124.50058528683095 91.42933528918297 C 0.0 **** -0.24
30917 H 123.8963079316325 124.99927539835548 91.09453578415716 H 0.0 **** 0.06
30918 H 124.58647762689384 123.9012379799278 92.31273558157984 H 0.0 **** 0.06
30919 H 125.56018800331614 125.24806970290061 91.6746010175941 H 0.0 **** 0.06
30920 H 125.17981217198022 123.85506226253452 90.63430168550327 H 0.0 **** 0.06
30921 C 5.1163125365873725 25.183998086416473 84.94397979036756 C 0.0 **** -0.24
30922 H 5.667250376044308 25.984592066152274 84.45009694681391 H 0.0 **** 0.06
30923 H 4.2908319764556495 25.61014983617393 85.5150244973305 H 0.0 **** 0.06
30924 H 5.78323576547956 24.645497541754686 85.6169270492502 H 0.0 **** 0.06
30925 H 4.723685176395293 24.497394889654416 84.19436372702728 H 0.0 **** 0.06
30926 C 13.120933758161158 73.49604947666711 76.0352629008612 C 0.0 **** -0.24
30927 H 13.203177993795777 73.1386117346199 75.00871449552163 H 0.0 **** 0.06
30928 H 12.109032781123574 73.86262005876733 76.21191501707962 H 0.0 **** 0.06
30929 H 13.833978068144575 74.30471821607526 76.1961546674735 H 0.0 **** 0.06
30930 H 13.337294783654869 72.67857663207337 76.72291507713268 H 0.0 **** 0.06
30931 C 19.61475986268067 80.68368979760439 87.68651938475685 C 0.0 **** -0.24
30932 H 19.246597423801347 81.125976515156 88.61190650059405 H 0.0 **** 0.06
30933 H 19.78903584057275 81.47095998584399 86.95199498567317 H 0.0 **** 0.06
30934 H 18.87470337380421 79.98331981314882 87.29948483601206 H 0.0 **** 0.06
30935 H 20.547717467618043 80.15579282242112 87.88152273136214 H 0.0 **** 0.06
30936 C 94.95585243009981 32.99067805296127 41.267262959008264 C 0.0 **** -0.24
30937 H 94.23709392972407 32.45632600403363 40.64635672500411 H 0.0 **** 0.06
30938 H 94.43462943874302 33.46734991490473 42.097963293978836 H 0.0 **** 0.06
30939 H 95.45729139146646 33.751685244357446 40.66846537226496 H 0.0 **** 0.06
30940 H 95.69318214890203 32.28857569382737 41.65452585070608 H 0.0 **** 0.06
30941 C 52.17723912407297 73.00834901320405 126.41819693115741 C 0.0 **** -0.24
30942 H 51.54369274908262 73.4973127746259 127.15781701400114 H 0.0 **** 0.06
30943 H 52.992136901037426 72.48908092414445 126.92321650527404 H 0.0 **** 0.06
30944 H 52.58812682601689 73.75720131662693 125.7401983617136 H 0.0 **** 0.06
30945 H 51.58502586030545 72.29031798550513 125.85023970958193 H 0.0 **** 0.06
30946 C 99.40641904473574 30.073219750107178 33.18305207085598 C 0.0 **** -0.24
30947 H 100.3774759755577 30.2969530654588 33.62630074517432 H 0.0 **** 0.06
30948 H 99.27676249307473 30.663467637579444 32.27555159349481 H 0.0 **** 0.06
30949 H 98.6171864690694 30.31947257510209 33.893248484835624 H 0.0 **** 0.06
30950 H 99.35624182504748 29.012302909591902 32.93635140259539 H 0.0 **** 0.06
30951 C 26.637867864205816 41.73806725657036 2.325677207167228 C 0.0 **** -0.24
30952 H 26.48301357465232 41.21805011334587 1.3811293240062206 H 0.0 **** 0.06
30953 H 27.280005456337108 41.138274402519386 2.9702067111697126 H 0.0 **** 0.06
30954 H 25.676658441619452 41.89526824189002 2.8157596550716306 H 0.0 **** 0.06
30955 H 27.11063978588976 42.701487882841434 2.135709160965728 H 0.0 **** 0.06
30956 C 96.55096060032608 24.371585578501865 0.7654400490469015 C 0.0 **** -0.24
30957 H 97.11293872369606 23.4757944686708 1.0300782110613227 H 0.0 **** 0.06
30958 H 96.58805894820472 25.08065548563536 1.5931133604502747 H 0.0 **** 0.06
30959 H 95.51441133299463 24.102057505356527 0.562827844442154 H 0.0 **** 0.06
30960 H 96.98931127828624 24.82568085542468 -0.12349113919907495 H 0.0 **** 0.06
30961 C 129.27357017198995 75.33582766100957 39.631027562514106 C 0.0 **** -0.24
30962 H 129.35491580592475 76.36727207574555 39.97345676281449 H 0.0 **** 0.06
30963 H 128.42515640752845 74.85621993066665 40.1189599020943 H 0.0 **** 0.06
30964 H 130.18861111142988 74.79739006222661 39.88088869864012 H 0.0 **** 0.06
30965 H 129.127830559781 75.32236052625149 38.55089698178725 H 0.0 **** 0.06
30966 C 63.50089348829478 111.17279231752332 8.063106901992171 C 0.0 **** -0.24
30967 H 62.88746158578215 112.02251446286954 7.761408184640004 H 0.0 **** 0.06
30968 H 64.26758010331162 110.99297290282769 7.3092706469287805 H 0.0 **** 0.06
30969 H 62.87220562532612 110.28797765600638 8.16009671898064 H 0.0 **** 0.06
30970 H 63.97509800826005 111.3889032780713 9.020625890417364 H 0.0 **** 0.06
30971 C 9.197035477551754 89.08638033988893 45.14065488975328 C 0.0 **** -0.24
30972 H 8.582121717084522 88.18552504954783 45.140046765316185 H 0.0 **** 0.06
30973 H 9.44350977081847 89.35729455881352 46.167132537584365 H 0.0 **** 0.06
30974 H 8.645070354017903 89.90146652146336 44.67089263237469 H 0.0 **** 0.06
30975 H 10.114375910113779 88.90010181584802 44.58302216151205 H 0.0 **** 0.06
30976 C 77.92652649058881 101.00457901556197 45.688334729463755 C 0.0 **** -0.24
30977 H 78.12569556707177 100.12419783815625 46.2988624491137 H 0.0 **** 0.06
30978 H 78.74218351433963 101.14832737627663 44.979941844100395 H 0.0 **** 0.06
30979 H 77.84467971389955 101.8805384853114 46.33179691100646 H 0.0 **** 0.06
30980 H 76.99181607656035 100.86441455089579 45.14425486001517 H 0.0 **** 0.06
30981 C 43.85149402256572 112.25474883903615 22.106500632515456 C 0.0 **** -0.24
30982 H 43.84687763547811 112.42038047194438 23.183577366022078 H 0.0 **** 0.06
30983 H 43.68492524346203 113.20173067117872 21.593202751136218 H 0.0 **** 0.06
30984 H 43.05996249231093 111.55390274248049 21.842517648983893 H 0.0 **** 0.06
30985 H 44.81612960073373 111.84272543769112 21.80720732129346 H 0.0 **** 0.06
30986 C 22.615185368691414 27.489173773963913 70.85994899678929 C 0.0 **** -0.24
30987 H 23.39164732094821 26.934529340252823 70.33300225966951 H 0.0 **** 0.06
30988 H 21.654629942857213 27.319282096737055 70.37267739928649 H 0.0 **** 0.06
30989 H 22.85168331275102 28.55248409002104 70.83903722859381 H 0.0 **** 0.06
30990 H 22.563947257418135 27.148337189435452 71.89445738177488 H 0.0 **** 0.06
30991 C 53.911989883935746 43.62154466208591 112.51304751704177 C 0.0 **** -0.24
30992 H 53.35907606267739 42.85008221007652 113.04934266171595 H 0.0 **** 0.06
30993 H 53.61512522091829 44.60393330843294 112.88115677202954 H 0.0 **** 0.06
30994 H 53.693335218835045 43.55047231969971 111.44748506490131 H 0.0 **** 0.06
30995 H 54.980867795647725 43.480570018386516 112.67494457169953 H 0.0 **** 0.06
30996 C 14.854092345338444 130.57521616723554 98.93322453379605 C 0.0 **** -0.24
30997 H 15.877733761668026 130.94732333239244 98.95904922820327 H 0.0 **** 0.06
30998 H 14.206110505850745 131.32477803120503 98.47933908911472 H 0.0 **** 0.06
30999 H 14.516679499541283 130.36970267399806 99.94906125292144 H 0.0 **** 0.06
31000 H 14.816310067695042 129.65776349308584 98.34576766879744 H 0.0 **** 0.06
31001 C 128.9560758543472 5.811640495563381 86.52007961229336 C 0.0 **** -0.24
31002 H 129.3809188871192 4.850713412066739 86.23081161136255 H 0.0 **** 0.06
31003 H 128.48317775896183 5.720103223145031 87.49931806456053 H 0.0 **** 0.06
31004 H 128.2115247149043 6.11573379333646 85.7842750565807 H 0.0 **** 0.06
31005 H 129.747145397316 6.560044239462059 86.56753787498562 H 0.0 **** 0.06
31006 C 83.52698450914278 95.46804163345661 61.067460957958616 C 0.0 **** -0.24
31007 H 82.69555451098748 96.14167599436848 61.273651030514074 H 0.0 **** 0.06
31008 H 83.64009512799569 95.34982060248541 59.98921872326858 H 0.0 **** 0.06
31009 H 83.32888808320362 94.49710767063095 61.52060604549911 H 0.0 **** 0.06
31010 H 84.44338850020782 95.88444067646162 61.485890212465975 H 0.0 **** 0.06
31011 C 98.38123520547659 98.55609994633244 130.87213148501596 C 0.0 **** -0.24
31012 H 98.23687883838586 98.86734354766956 131.90612474402565 H 0.0 **** 0.06
31013 H 99.39206261061659 98.1642970475626 130.74908659511533 H 0.0 **** 0.06
31014 H 98.24006531766952 99.41100601241985 130.21156044632073 H 0.0 **** 0.06
31015 H 97.65791315394921 97.77960086763946 130.62242589362887 H 0.0 **** 0.06
31016 C 45.56870033834085 113.85837843401443 92.63229987905845 C 0.0 **** -0.24
31017 H 44.725809396788236 113.22192431229958 92.90154600685872 H 0.0 **** 0.06
31018 H 46.482960089996496 113.45572258540592 93.07121101586614 H 0.0 **** 0.06
31019 H 45.397840539320725 114.86689690781661 93.00942838575605 H 0.0 **** 0.06
31020 H 45.669019539772364 113.88804097720738 91.54768583808817 H 0.0 **** 0.06
31021 C 33.437528741577154 88.34602495025327 53.57253308414812 C 0.0 **** -0.24
31022 H 32.354340196165595 88.46202926090353 53.525777426354296 H 0.0 **** 0.06
31023 H 33.73973100621308 88.17023410443281 54.60557660328897 H 0.0 **** 0.06
31024 H 33.915349411225975 89.25395494000912 53.20340159531537 H 0.0 **** 0.06
31025 H 33.73883032662266 87.49974981449292 52.95680334931643 H 0.0 **** 0.06
31026 C 17.280140173426766 90.74790421812054 82.10494997523867 C 0.0 **** -0.24
31027 H 18.292001664345385 90.79091523623178 82.50916390512893 H 0.0 **** 0.06
31028 H 17.09824263249699 89.7576245201156 81.68774995504018 H 0.0 **** 0.06
31029 H 17.169834078540667 91.49898730541577 81.32263530540129 H 0.0 **** 0.06
31030 H 16.56371128244394 90.94532093617327 82.90168562357391 H 0.0 **** 0.06
31031 C 97.52019292501407 12.881014215524715 96.4317323254864 C 0.0 **** -0.24
31032 H 97.49509152061928 13.968714128302793 96.49950621981094 H 0.0 **** 0.06
31033 H 96.833474744649 12.45628211411011 97.1647782458898 H 0.0 **** 0.06
31034 H 98.5316444207898 12.528007547935715 96.63328540394662 H 0.0 **** 0.06
31035 H 97.21958536663884 12.571919453795402 95.43049858208178 H 0.0 **** 0.06
31036 C 4.0097053162222664 57.43177007227658 12.77625672616243 C 0.0 **** -0.24
31037 H 4.7659177391230685 57.52093138335408 11.996455796320234 H 0.0 **** 0.06
31038 H 3.9973840908796774 58.342402179351666 13.376517430246139 H 0.0 **** 0.06
31039 H 4.244500437533077 56.579748694069224 13.414007676425086 H 0.0 **** 0.06
31040 H 3.0313295426426805 57.28494857260955 12.318036475288736 H 0.0 **** 0.06
31041 C 122.68115723013689 101.78820170650502 41.213141909081315 C 0.0 **** -0.24
31042 H 122.25162782840187 101.06120929930579 40.522731820219406 H 0.0 **** 0.06
31043 H 123.16925811639017 102.5809199302429 40.647200439585745 H 0.0 **** 0.06
31044 H 123.4116308605827 101.29385993364707 41.8521996991272 H 0.0 **** 0.06
31045 H 121.88835355794762 102.21525539253531 41.828875670289534 H 0.0 **** 0.06
31046 C 45.40222314380111 101.60175358260966 93.66420184107906 C 0.0 **** -0.24
31047 H 45.33446964780134 102.53001806748567 94.23184609673282 H 0.0 **** 0.06
31048 H 45.759961610753265 101.81769384947104 92.65740619746214 H 0.0 **** 0.06
31049 H 44.41794133499266 101.13674049543471 93.60914171060092 H 0.0 **** 0.06
31050 H 46.097787980733926 100.92432975694373 94.15953908580728 H 0.0 **** 0.06
31051 C 48.84515093055421 0.18707659720001857 88.408428336994 C 0.0 **** -0.24
31052 H 48.04112965716455 -0.2951110173479492 87.85359115992071 H 0.0 **** 0.06
31053 H 49.039171600326455 -0.370656747986402 89.32515404331673 H 0.0 **** 0.06
31054 H 48.55330504305695 1.20736603114932 88.65869011463136 H 0.0 **** 0.06
31055 H 49.74775793702412 0.20734916891672128 87.79638162768111 H 0.0 **** 0.06
31056 C 12.289628335023238 117.54872542525342 11.333098538419819 C 0.0 **** -0.24
31057 H 12.926639584658176 118.25894480772536 10.806795854435705 H 0.0 **** 0.06
31058 H 12.911173289654712 116.82313691017015 11.85809726565057 H 0.0 **** 0.06
31059 H 11.651949853384608 117.03170739126233 10.616289667886434 H 0.0 **** 0.06
31060 H 11.66783826758639 118.0828655339514 12.05265883130329 H 0.0 **** 0.06
31061 C 15.34271532423007 83.76959530411511 64.58860807414196 C 0.0 **** -0.24
31062 H 14.652588859853903 83.98998215844409 65.40424873020768 H 0.0 **** 0.06
31063 H 14.886166668830235 83.0474819687696 63.91217027991931 H 0.0 **** 0.06
31064 H 16.26510332407282 83.35552889370973 64.99462629930694 H 0.0 **** 0.06
31065 H 15.56454499209525 84.68805845310783 64.04429881887626 H 0.0 **** 0.06
31066 C 29.205698222333325 70.2114977525094 99.88795771424583 C 0.0 **** -0.24
31067 H 28.870908622350328 71.23094677055803 100.07586197913133 H 0.0 **** 0.06
31068 H 29.99375367258287 69.9505387858949 100.59516317242225 H 0.0 **** 0.06
31069 H 29.590629343392294 70.13669726500878 98.87086558633928 H 0.0 **** 0.06
31070 H 28.366578938032035 69.52515719679612 100.01028944551399 H 0.0 **** 0.06
31071 C 29.963421888969258 106.23687221166051 47.47698069755657 C 0.0 **** -0.24
31072 H 29.693058641771053 105.22063817326523 47.190300460283424 H 0.0 **** 0.06
31073 H 30.90541289940772 106.2205666851997 48.02627078897356 H 0.0 **** 0.06
31074 H 29.180835850970062 106.65529995903029 48.1089045165115 H 0.0 **** 0.06
31075 H 30.074688403304847 106.8487726470203 46.58232431667582 H 0.0 **** 0.06
31076 C 83.26847853642806 98.72763990783231 97.3859171782246 C 0.0 **** -0.24
31077 H 82.94921643921221 97.69570732730183 97.52456499314073 H 0.0 **** 0.06
31078 H 82.58214932629667 99.23273879484475 96.70561735576874 H 0.0 **** 0.06
31079 H 84.27456782353913 98.7430730492331 96.96542021086077 H 0.0 **** 0.06
31080 H 83.26897877823407 99.24045430015865 98.3481352719197 H 0.0 **** 0.06
31081 C 67.51226346375995 38.54300601330808 59.247492798493255 C 0.0 **** -0.24
31082 H 67.50205303756215 37.46555048633291 59.41001284794261 H 0.0 **** 0.06
31083 H 66.68182866408404 38.820451588889405 58.598366880126164 H 0.0 **** 0.06
31084 H 68.45341790036866 38.83097840205681 58.77801142939545 H 0.0 **** 0.06
31085 H 67.41321843992483 39.055250220114516 60.2044820469081 H 0.0 **** 0.06
31086 C 126.61028778402257 51.16747027298601 78.08811073076568 C 0.0 **** -0.24
31087 H 126.5015000461344 50.08372100869133 78.02773411592011 H 0.0 **** 0.06
31088 H 126.73319098995978 51.4624597921985 79.13104963247315 H 0.0 **** 0.06
31089 H 125.72091148451963 51.64498876628228 77.67803597632681 H 0.0 **** 0.06
31090 H 127.48514578378246 51.47665066605346 77.51688451656709 H 0.0 **** 0.06
31091 C 122.40361991227095 96.57894956631297 12.342755287147426 C 0.0 **** -0.24
31092 H 121.59148844170167 96.12642230444176 11.772613117117146 H 0.0 **** 0.06
31093 H 122.25299364007452 97.65717806155807 12.396907970655718 H 0.0 **** 0.06
31094 H 123.35350729125712 96.36806901076142 11.851370677594431 H 0.0 **** 0.06
31095 H 122.41592827310795 96.16182105746024 13.349530714428198 H 0.0 **** 0.06
31096 C 88.04226501829535 101.45572223087055 84.47618095600404 C 0.0 **** -0.24
31097 H 87.00020462758683 101.20828228981591 84.6779607175664 H 0.0 **** 0.06
31098 H 88.38971762809558 102.18788732950885 85.20568590476739 H 0.0 **** 0.06
31099 H 88.12827347725597 101.87298316827777 83.47210555418553 H 0.0 **** 0.06
31100 H 88.65030545413342 100.55408914918065 84.54683545750692 H 0.0 **** 0.06
31101 C 115.07937231303454 17.505256312719666 83.97339358406005 C 0.0 **** -0.24
31102 H 114.77643586158838 17.13900123754314 82.99302419635093 H 0.0 **** 0.06
31103 H 115.84787638206224 16.849930829945293 84.3844136890185 H 0.0 **** 0.06
31104 H 114.21750536185344 17.516151221665297 84.64030220342232 H 0.0 **** 0.06
31105 H 115.47698276681268 18.516052793661174 83.87635269904521 H 0.0 **** 0.06
31106 C 41.50077785499576 56.999774480002515 124.64756263068718 C 0.0 **** -0.24
31107 H 42.01309005567447 56.15618236977963 125.11078726630448 H 0.0 **** 0.06
31108 H 42.22134132855723 57.600875697386954 124.09328015963786 H 0.0 **** 0.06
31109 H 41.03680234326902 57.61157390931996 125.42164575940511 H 0.0 **** 0.06
31110 H 40.73428388401629 56.62965039831485 123.96728431967327 H 0.0 **** 0.06
31111 C 30.82700557456387 10.941743658135124 82.18890876900905 C 0.0 **** -0.24
31112 H 29.772401117978276 11.11827385197006 81.97733135679172 H 0.0 **** 0.06
31113 H 31.436533189676062 11.44125999074879 81.43526160945493 H 0.0 **** 0.06
31114 H 31.02646053907121 9.870354467404184 82.16636121273564 H 0.0 **** 0.06
31115 H 31.070669304561186 11.336106888375696 83.17462983075846 H 0.0 **** 0.06
31116 C 105.94200560432944 73.17401920564136 72.46925834722565 C 0.0 **** -0.24
31117 H 104.88312624241075 73.3984111161818 72.33723074508217 H 0.0 **** 0.06
31118 H 106.05083121142161 72.31637025716066 73.13392578193793 H 0.0 **** 0.06
31119 H 106.4437304993765 74.0380397639299 72.90500951040245 H 0.0 **** 0.06
31120 H 106.38798870959363 72.94380008785689 71.50235109984038 H 0.0 **** 0.06
31121 C 21.32301278661396 10.12438166994707 68.55787804715764 C 0.0 **** -0.24
31122 H 21.372360990811913 9.051940689303933 68.74658303240854 H 0.0 **** 0.06
31123 H 22.333422131639395 10.5220778273777 68.45733824028825 H 0.0 **** 0.06
31124 H 20.81894946887492 10.6168236703096 69.39030678089507 H 0.0 **** 0.06
31125 H 20.767038387070933 10.305647280405879 67.63820381335874 H 0.0 **** 0.06
31126 C 4.180996393351592 32.23725626623901 61.926769320617495 C 0.0 **** -0.24
31127 H 4.458739723161791 33.09013758607273 61.30781815834786 H 0.0 **** 0.06
31128 H 5.059627892666381 31.875703258016394 62.46221927537459 H 0.0 **** 0.06
31129 H 3.788507858544204 31.4412342213934 61.293739983357796 H 0.0 **** 0.06
31130 H 3.418721252241536 32.541338503519086 62.643474295569945 H 0.0 **** 0.06
31131 C 105.11649406175069 74.33648243235864 44.66505166397164 C 0.0 **** -0.24
31132 H 104.37031364320998 74.92766172893498 45.19674080299646 H 0.0 **** 0.06
31133 H 106.011119267448 74.93889662200229 44.50659230050934 H 0.0 **** 0.06
31134 H 104.71271153878605 74.02364205703364 43.70197011913913 H 0.0 **** 0.06
31135 H 105.36966551828844 73.45643860064449 45.256578128664785 H 0.0 **** 0.06
31136 C 90.44659038999663 37.33851356945151 44.36505307435595 C 0.0 **** -0.24
31137 H 91.14730785814005 36.503622183559486 44.38474804680379 H 0.0 **** 0.06
31138 H 90.44382380551029 37.83270858013256 45.33751603447024 H 0.0 **** 0.06
31139 H 89.44557002979562 36.96720247043757 44.14341637135069 H 0.0 **** 0.06
31140 H 90.74858078987472 38.04969097185531 43.59656824112964 H 0.0 **** 0.06
31141 C 54.823817975327984 113.19395342470301 66.4893043739595 C 0.0 **** -0.24
31142 H 54.84066190567334 112.16679927349765 66.12313750716658 H 0.0 **** 0.06
31143 H 53.860397358919585 113.64693687040364 66.25491539139998 H 0.0 **** 0.06
31144 H 55.61939403502646 113.7633818134417 66.00741477457146 H 0.0 **** 0.06
31145 H 54.975210594438835 113.1984365517485 67.56803768778002 H 0.0 **** 0.06
31146 C 93.36080588770588 19.423328478818178 46.42883650333445 C 0.0 **** -0.24
31147 H 92.2733860210989 19.34290096106173 46.42205655010281 H 0.0 **** 0.06
31148 H 93.64925339911977 20.457732320194566 46.24152605086891 H 0.0 **** 0.06
31149 H 93.77679133764516 18.78290584553315 45.651381424918725 H 0.0 **** 0.06
31150 H 93.7418339421364 19.109500768931184 47.40067870370078 H 0.0 **** 0.06
31151 C 64.43559824378968 75.28380584627655 93.77965991164987 C 0.0 **** -0.24
31152 H 64.20424106619731 75.89908206410936 94.6492313634568 H 0.0 **** 0.06
31153 H 64.65431338736715 74.26582330910604 94.10362713884925 H 0.0 **** 0.06
31154 H 65.30361206918585 75.69589192084878 93.2646710218271 H 0.0 **** 0.06
31155 H 63.581380442321304 75.27547315324388 93.10386194504761 H 0.0 **** 0.06
31156 C 26.57080480415044 89.0083165168472 103.78567190979086 C 0.0 **** -0.24
31157 H 26.174991473164056 88.5041144849881 104.66677833882278 H 0.0 **** 0.06
31158 H 26.902731344940662 88.26446699031703 103.06017882259914 H 0.0 **** 0.06
31159 H 27.41353170741027 89.63708397738705 104.07373152140954 H 0.0 **** 0.06
31160 H 25.791497891302782 89.62642199334906 103.34045196781287 H 0.0 **** 0.06
31161 C 73.89916655456597 22.468047936261847 88.58101122434189 C 0.0 **** -0.24
31162 H 73.6634518265534 21.700706823894905 89.31771917090545 H 0.0 **** 0.06
31163 H 74.87287722649148 22.902794609168076 88.80800320137729 H 0.0 **** 0.06
31164 H 73.1368378171822 23.24638435954968 88.61051990751685 H 0.0 **** 0.06
31165 H 73.92393171799799 22.021297218035976 87.58691064053444 H 0.0 **** 0.06
31166 C 81.59602733149787 38.56311912153015 101.59755240779748 C 0.0 **** -0.24
31167 H 81.36490833186546 39.625206226405794 101.67422975639556 H 0.0 **** 0.06
31168 H 81.25970775982735 38.052651220113205 102.50065384334795 H 0.0 **** 0.06
31169 H 82.67303630135196 38.433843471228585 101.48572211550754 H 0.0 **** 0.06
31170 H 81.08708084185565 38.14181126772931 100.73033752101992 H 0.0 **** 0.06
31171 C 72.45890044122606 88.43948832148799 102.47464873099489 C 0.0 **** -0.24
31172 H 72.65984875096441 88.1071775211678 101.45626532186492 H 0.0 **** 0.06
31173 H 71.84762481277679 89.34156437348057 102.44816530177133 H 0.0 **** 0.06
31174 H 73.40088179108312 88.65279292051268 102.979187841672 H 0.0 **** 0.06
31175 H 71.92779650862286 87.65444266627516 103.01363708426385 H 0.0 **** 0.06
31176 C 14.55142686245867 45.4005066645123 0.07858049996815453 C 0.0 **** -0.24
31177 H 15.305145044716909 45.81575234988571 0.7478273971973977 H 0.0 **** 0.06
31178 H 15.02721987137096 44.71567087299968 -0.6232409954796481 H 0.0 **** 0.06
31179 H 14.067413896708814 46.207857098035966 -0.47011626776208004 H 0.0 **** 0.06
31180 H 13.805589334932023 44.86043931180897 0.6632523746141601 H 0.0 **** 0.06
31181 C 59.19751697694656 44.90746929717211 59.699084269052804 C 0.0 **** -0.24
31182 H 60.103543667141125 45.17313310947978 59.154674652453735 H 0.0 **** 0.06
31183 H 59.155307913918406 43.82583204913547 59.827329081602926 H 0.0 **** 0.06
31184 H 58.32508978448995 45.24199658499093 59.138006072278785 H 0.0 **** 0.06
31185 H 59.20795062227573 45.39003054027833 60.67698268917704 H 0.0 **** 0.06
31186 C 54.436766223282575 126.69207008708366 110.57372226754171 C 0.0 **** -0.24
31187 H 54.94362495350617 127.45256080472488 111.16901769924488 H 0.0 **** 0.06
31188 H 53.52473836018186 127.11192623497587 110.14881464153643 H 0.0 **** 0.06
31189 H 54.186111203903806 125.84206976601473 111.20757708454019 H 0.0 **** 0.06
31190 H 55.09552822554883 126.36362111427425 109.76860272610853 H 0.0 **** 0.06
31191 C 46.931764830805164 72.6485408683284 71.20583438084972 C 0.0 **** -0.24
31192 H 47.02034439824637 71.57594735602932 71.03066492925595 H 0.0 **** 0.06
31193 H 46.34551461615289 72.8218686358617 72.1080985462954 H 0.0 **** 0.06
31194 H 46.435849090113116 73.11472828026933 70.35408478124447 H 0.0 **** 0.06
31195 H 47.92560624717064 73.07887506098646 71.3286439290539 H 0.0 **** 0.06
31196 C 6.631663780496957 52.055654506951925 111.22093891915405 C 0.0 **** -0.24
31197 H 5.946206044391406 52.60591550700394 111.86515392077116 H 0.0 **** 0.06
31198 H 6.981853721606861 52.70885636863591 110.42076775913533 H 0.0 **** 0.06
31199 H 6.115939211360395 51.19727629792263 110.79131763577362 H 0.0 **** 0.06
31200 H 7.484074642290558 51.710584433619914 111.80751025211401 H 0.0 **** 0.06
31201 C 103.660455798076 56.390648246791315 55.507212863728284 C 0.0 **** -0.24
31202 H 102.78291418645126 57.03729078156255 55.53214604292856 H 0.0 **** 0.06
31203 H 103.54226312482072 55.590375334456795 56.238262293423816 H 0.0 **** 0.06
31204 H 104.54863603982224 56.97526112179338 55.74647026023655 H 0.0 **** 0.06
31205 H 103.76515360180647 55.96075580559295 54.51116401139376 H 0.0 **** 0.06
31206 C 94.81682545865505 51.77349083997743 112.28358011165645 C 0.0 **** -0.24
31207 H 95.84178221774324 52.136790884088896 112.36015821260335 H 0.0 **** 0.06
31208 H 94.58693349967392 51.55128547365476 111.24138101891018 H 0.0 **** 0.06
31209 H 94.1312582586417 52.53618316499572 112.6525021693574 H 0.0 **** 0.06
31210 H 94.70742759637663 50.86747318403238 112.88128630671477 H 0.0 **** 0.06
31211 C 44.78662441943127 109.03671689915853 125.89192516768648 C 0.0 **** -0.24
31212 H 44.71839832166008 109.7140360382198 126.74393721124002 H 0.0 **** 0.06
31213 H 45.73393885536326 108.49828056030144 125.93088898668108 H 0.0 **** 0.06
31214 H 44.73186573938972 109.6097722285613 124.9669470690271 H 0.0 **** 0.06
31215 H 43.961986581828 108.32433602512704 125.92809749193552 H 0.0 **** 0.06
31216 C 53.74306715189587 111.02808650736466 19.379064852675953 C 0.0 **** -0.24
31217 H 53.45248550577713 110.07909008591469 18.928588925772573 H 0.0 **** 0.06
31218 H 54.34471522833587 111.59793426607928 18.669390477280757 H 0.0 **** 0.06
31219 H 54.3261602578641 110.83906600945556 20.280537628909798 H 0.0 **** 0.06
31220 H 52.850307735318154 111.59694274906741 19.636139923075376 H 0.0 **** 0.06
31221 C 90.99045204879778 39.27212398862082 23.221149588656708 C 0.0 **** -0.24
31222 H 90.9373246069193 39.85280188296498 22.300526377434032 H 0.0 **** 0.06
31223 H 90.09681774529102 38.65549850948163 23.3139029234663 H 0.0 **** 0.06
31224 H 91.05579798573419 39.94780622843323 24.07435995376963 H 0.0 **** 0.06
31225 H 91.87321356599432 38.63268802726815 23.195492932344074 H 0.0 **** 0.06
31226 C 40.27477979555022 86.75416673835285 105.67238385069794 C 0.0 **** -0.24
31227 H 40.720547340672454 87.25931397374066 104.81565634289257 H 0.0 **** 0.06
31228 H 39.23457903949833 86.51494534698499 105.45281393820395 H 0.0 **** 0.06
31229 H 40.32167087798473 87.40806042159126 106.54392261470322 H 0.0 **** 0.06
31230 H 40.82393052438232 85.83575077710259 105.87780785439163 H 0.0 **** 0.06
31231 C 64.35899302033283 55.23114113270944 18.25569769414011 C 0.0 **** -0.24
31232 H 63.30081790488234 54.97722412790034 18.31548926138086 H 0.0 **** 0.06
31233 H 64.5579876019068 55.73692826037153 17.31099827368854 H 0.0 **** 0.06
31234 H 64.95506495969161 54.31979179239326 18.313569574569726 H 0.0 **** 0.06
31235 H 64.6214227169001 55.89002886087292 19.08421333101481 H 0.0 **** 0.06
31236 C 30.416324929232886 10.323672994186609 66.88801114623723 C 0.0 **** -0.24
31237 H 30.808640882308964 11.31403098022281 66.65675430290074 H 0.0 **** 0.06
31238 H 31.21192429273843 9.584544069015749 66.78799804211772 H 0.0 **** 0.06
31239 H 29.607823581566464 10.08359719787768 66.19709169735941 H 0.0 **** 0.06
31240 H 30.03600126671202 10.313478509822716 67.90969724347113 H 0.0 **** 0.06
31241 C 14.374276549840658 36.3028721654068 129.28063869113979 C 0.0 **** -0.24
31242 H 15.277157250617904 36.50598618434677 129.856836248152 H 0.0 **** 0.06
31243 H 13.522654094191182 36.22478012664263 129.9570212294474 H 0.0 **** 0.06
31244 H 14.494070550732204 35.36604386650052 128.73638634957388 H 0.0 **** 0.06
31245 H 14.203491378422598 37.115540542298106 128.57435686178093 H 0.0 **** 0.06
31246 C 71.23531434988966 94.80796295143257 31.950866984436487 C 0.0 **** -0.24
31247 H 72.02140493052173 94.20121250833313 31.50287156621303 H 0.0 **** 0.06
31248 H 70.26183379278322 94.40198186590311 31.676313857588298 H 0.0 **** 0.06
31249 H 71.31721568739549 95.8337726894858 31.588487148452714 H 0.0 **** 0.06
31250 H 71.34133254924579 94.79726403116396 33.03603802699391 H 0.0 **** 0.06
31251 C 30.835783666923163 13.709786580039026 62.10030897070453 C 0.0 **** -0.24
31252 H 31.838414781352213 13.311474471194202 62.25395059854516 H 0.0 **** 0.06
31253 H 30.885899644001313 14.57579105407222 61.43917343856367 H 0.0 **** 0.06
31254 H 30.413852883911005 14.009190573329128 63.059671847623264 H 0.0 **** 0.06
31255 H 30.20499606101251 12.943545718454114 61.64956579252785 H 0.0 **** 0.06
31256 C 48.78848862427732 98.23490390171239 10.778198446679255 C 0.0 **** -0.24
31257 H 48.1898974191743 99.06797048417413 10.40811714018787 H 0.0 **** 0.06
31258 H 49.8005239568801 98.58074349206318 10.987649896684843 H 0.0 **** 0.06
31259 H 48.820015526163644 97.44861867150148 10.02479218753632 H 0.0 **** 0.06
31260 H 48.34042311500184 97.84500783898388 11.692221332532483 H 0.0 **** 0.06
31261 C 102.0993402338894 111.82697993931554 121.582004993856 C 0.0 **** -0.24
31262 H 101.01593197564934 111.9027989046117 121.67645878789602 H 0.0 **** 0.06
31263 H 102.44080579351927 110.9038030320283 122.05024226167774 H 0.0 **** 0.06
31264 H 102.56770212063573 112.67995462358705 122.07352897526181 H 0.0 **** 0.06
31265 H 102.37209162002755 111.82090770766942 120.52633917484746 H 0.0 **** 0.06
31266 C 93.37193009373695 95.35134585430711 125.77139982495666 C 0.0 **** -0.24
31267 H 92.45434079964821 95.90504179022027 125.57220350313617 H 0.0 **** 0.06
31268 H 93.60057299923929 95.39803842595393 126.83558290616097 H 0.0 **** 0.06
31269 H 94.19199351464678 95.79042449449081 125.20323576134268 H 0.0 **** 0.06
31270 H 93.24008905924623 94.31094085077203 125.47296577225129 H 0.0 **** 0.06
31271 C 117.1506128387467 55.273454010708974 72.59457612887022 C 0.0 **** -0.24
31272 H 117.263776922566 55.78890082018597 71.64092213621234 H 0.0 **** 0.06
31273 H 116.41704043497532 55.7981356584354 73.20729483110946 H 0.0 **** 0.06
31274 H 118.10955300200577 55.25396220240765 73.11309936082117 H 0.0 **** 0.06
31275 H 116.81286984921292 54.252261279141464 72.41724998447805 H 0.0 **** 0.06
31276 C 24.248067638994343 48.76324504095716 61.797587749295076 C 0.0 **** -0.24
31277 H 23.595292120238128 48.92371350439825 62.655696408138766 H 0.0 **** 0.06
31278 H 24.796220914438237 47.82996099828047 61.92958925475142 H 0.0 **** 0.06
31279 H 24.9524934947068 49.590904848654006 61.717264010494034 H 0.0 **** 0.06
31280 H 23.64751630096444 48.706434257539684 60.8890558769763 H 0.0 **** 0.06
31281 C 23.46073304443601 50.84007592989025 90.6332260224022 C 0.0 **** -0.24
31282 H 23.943302152282655 50.8134348511679 91.61060149799854 H 0.0 **** 0.06
31283 H 22.944932876787618 51.79237086766207 90.50945197164978 H 0.0 **** 0.06
31284 H 22.74101808552615 50.02387120142254 90.56136672772246 H 0.0 **** 0.06
31285 H 24.21383292707256 50.72989393699439 89.8535909087226 H 0.0 **** 0.06
31286 C 7.0874040383248875 90.20366631548708 104.30877119855356 C 0.0 **** -0.24
31287 H 6.959612708611772 90.856025731758 105.17342379782741 H 0.0 **** 0.06
31288 H 6.800680548615713 90.7396841855417 103.40350327949193 H 0.0 **** 0.06
31289 H 6.457941164047554 89.32079825639585 104.4238928569468 H 0.0 **** 0.06
31290 H 8.131031252623117 89.89933221048977 104.23548814232146 H 0.0 **** 0.06
31291 C 23.0043491519492 65.366840431421 110.63619873394858 C 0.0 **** -0.24
31292 H 23.51147729415289 66.29475105553486 110.90258463780823 H 0.0 **** 0.06
31293 H 23.71175115042191 64.69241302493629 110.15324057958618 H 0.0 **** 0.06
31294 H 22.184188735444906 65.58508043904628 109.95265310438499 H 0.0 **** 0.06
31295 H 22.61084438932309 64.8962438084623 111.53804371810486 H 0.0 **** 0.06
31296 C 68.04281234022767 101.57110844186556 68.44721366381128 C 0.0 **** -0.24
31297 H 68.50216246265408 101.65490263553633 67.4623885744142 H 0.0 **** 0.06
31298 H 67.0928123736363 101.04296847588616 68.36152383326288 H 0.0 **** 0.06
31299 H 67.87029535382032 102.56706411271828 68.85299508602321 H 0.0 **** 0.06
31300 H 68.70679931324312 101.01797293347909 69.11195414932911 H 0.0 **** 0.06
31301 C 70.12170068593635 127.25641395375132 24.089934848469426 C 0.0 **** -0.24
31302 H 69.84603479712551 128.08695176398845 24.740303028922455 H 0.0 **** 0.06
31303 H 69.80389492845363 127.47304721240266 23.070067210460593 H 0.0 **** 0.06
31304 H 69.63419352969254 126.34644672970526 24.437977694464223 H 0.0 **** 0.06
31305 H 71.20318108805824 127.12115994982148 24.11383012314056 H 0.0 **** 0.06
31306 C 102.67594624649217 54.6850728110596 110.95764808115405 C 0.0 **** -0.24
31307 H 102.44621885363017 53.690020144978774 111.3388920905237 H 0.0 **** 0.06
31308 H 103.65610092660113 54.6745520578167 110.48115928522924 H 0.0 **** 0.06
31309 H 102.67926095313622 55.39800807647049 111.78164124990377 H 0.0 **** 0.06
31310 H 101.92011153176017 54.97800558878609 110.22816894863601 H 0.0 **** 0.06
31311 C 92.21548926871029 68.88967077055965 19.66628320624642 C 0.0 **** -0.24
31312 H 91.6727985920472 69.63272004774701 19.081680702678398 H 0.0 **** 0.06
31313 H 93.25252852354475 69.20345478195789 19.77933880710424 H 0.0 **** 0.06
31314 H 92.17930827527093 67.92773521750355 19.154047471299577 H 0.0 **** 0.06
31315 H 91.7542248194779 68.7948318998113 20.64942825101059 H 0.0 **** 0.06
31316 C 99.15261438129187 116.29528809672973 50.64994281302157 C 0.0 **** -0.24
31317 H 99.52774381638397 117.31545697106307 50.73864970905862 H 0.0 **** 0.06
31318 H 98.46184175531636 116.2355593771604 49.80738642284271 H 0.0 **** 0.06
31319 H 98.63178881337339 116.01911842529927 51.566585868451625 H 0.0 **** 0.06
31320 H 99.98625784738545 115.61379223140356 50.485327088442176 H 0.0 **** 0.06
31321 C 63.020387670229994 33.623959890255975 4.683896422635186 C 0.0 **** -0.24
31322 H 63.61845172826983 34.224704720691506 5.36836515326452 H 0.0 **** 0.06
31323 H 63.67772223761597 33.11545052350553 3.978130173932726 H 0.0 **** 0.06
31324 H 62.33148225366638 34.27026374753572 4.13973087957126 H 0.0 **** 0.06
31325 H 62.45374757494373 32.884083903138276 5.249797501891408 H 0.0 **** 0.06
31326 C 102.42239447001782 116.59630267902591 20.024499548557117 C 0.0 **** -0.24
31327 H 101.78856361506578 115.71734931657528 20.13693103276495 H 0.0 **** 0.06
31328 H 102.0690608552145 117.38612448747932 20.688145080718897 H 0.0 **** 0.06
31329 H 102.38301948952372 116.94357733564041 18.992519733267756 H 0.0 **** 0.06
31330 H 103.45032350800156 116.33766017871616 20.282081611487968 H 0.0 **** 0.06
31331 C 59.227844118896456 74.93333609670525 30.417367560594442 C 0.0 **** -0.24
31332 H 58.44119131673719 74.52691569048378 31.05369164233838 H 0.0 **** 0.06
31333 H 60.19755728629248 74.580457119295 30.769517121485848 H 0.0 **** 0.06
31334 H 59.200625889862934 76.02227790987196 30.45610206004352 H 0.0 **** 0.06
31335 H 59.071490876232005 74.6013657553983 29.39072504441279 H 0.0 **** 0.06
31336 C 47.765735920265726 99.32780050590733 116.77806831129523 C 0.0 **** -0.24
31337 H 48.473749497998405 98.4988952555351 116.79370025871036 H 0.0 **** 0.06
31338 H 47.38391556799379 99.45975129646965 115.7657547876961 H 0.0 **** 0.06
31339 H 48.26903991285451 100.24073739889317 117.09882191889025 H 0.0 **** 0.06
31340 H 46.93921192659682 99.11170462775382 117.45438042902552 H 0.0 **** 0.06
31341 C 29.259329504950074 37.191298461759274 43.22066982210886 C 0.0 **** -0.24
31342 H 29.31433265914316 37.890991352725884 44.05435138844159 H 0.0 **** 0.06
31343 H 29.22380226829705 36.17128521744294 43.604245507784206 H 0.0 **** 0.06
31344 H 30.138319668126087 37.311716154016594 42.586705001095396 H 0.0 **** 0.06
31345 H 28.360336980125 37.39234516204076 42.63673385181263 H 0.0 **** 0.06
31346 C 109.32713734308203 93.12356195881408 52.68500237751741 C 0.0 **** -0.24
31347 H 108.92353169382318 92.59775227168487 53.551046369102224 H 0.0 **** 0.06
31348 H 108.99169100032361 94.16015476730956 52.70079874334506 H 0.0 **** 0.06
31349 H 108.97673447705506 92.64159926504455 51.77286356952931 H 0.0 **** 0.06
31350 H 110.4161351163363 93.09259826929035 52.7170891092229 H 0.0 **** 0.06
31351 C 41.069657753654724 30.21837236155617 103.60063184127326 C 0.0 **** -0.24
31352 H 41.76368108438396 29.7229868017971 102.92158233073047 H 0.0 **** 0.06
31353 H 41.361729466564384 30.01226186226335 104.63145926348012 H 0.0 **** 0.06
31354 H 40.06104120313262 29.84359006453292 103.42658486138683 H 0.0 **** 0.06
31355 H 41.09384653618713 31.29295466688975 103.42348737303925 H 0.0 **** 0.06
31356 C 18.19872355121248 6.758250943727205 106.91234933723746 C 0.0 **** -0.24
31357 H 19.287409322945706 6.803952829751466 106.92832020086024 H 0.0 **** 0.06
31358 H 17.793277171297774 7.770123737543685 106.88780967449514 H 0.0 **** 0.06
31359 H 17.84464146498857 6.246574455923891 107.80714344942436 H 0.0 **** 0.06
31360 H 17.871473149561837 6.2134416267628865 106.02720956740689 H 0.0 **** 0.06
31361 C 101.47349491234706 93.55282859359247 10.645670470486568 C 0.0 **** -0.24
31362 H 100.56063085704963 93.9651094628557 10.215251841199564 H 0.0 **** 0.06
31363 H 101.4940970674048 93.75827626064341 11.716798091355212 H 0.0 **** 0.06
31364 H 102.3400157805849 94.01279635701289 10.17007848155982 H 0.0 **** 0.06
31365 H 101.49786135819525 92.4758841179821 10.482148946800287 H 0.0 **** 0.06
31366 C 93.87607584458311 42.776642281898575 40.87857366870317 C 0.0 **** -0.24
31367 H 94.05647045441032 43.81633025670834 41.15318833403352 H 0.0 **** 0.06
31368 H 92.81468793776912 42.55201999978394 40.98774352212167 H 0.0 **** 0.06
31369 H 94.45528028593844 42.122983824181105 41.53120935402638 H 0.0 **** 0.06
31370 H 94.17728353946637 42.61683132128954 39.84360757606758 H 0.0 **** 0.06
31371 C 14.172400958387755 26.93419606871504 39.708681253832566 C 0.0 **** -0.24
31372 H 14.108625606723635 26.12793530793084 38.97673668046363 H 0.0 **** 0.06
31373 H 14.7142232545432 26.584269826435673 40.58788586333179 H 0.0 **** 0.06
31374 H 13.167092017295147 27.24065891990756 39.999682950580706 H 0.0 **** 0.06
31375 H 14.69810352305305 27.781196235373727 39.26934775043736 H 0.0 **** 0.06
31376 C 95.0688072652286 69.73497319907923 9.815311931692605 C 0.0 **** -0.24
31377 H 94.22710475690315 70.10674589605244 9.230745908639221 H 0.0 **** 0.06
31378 H 95.64800585335843 70.57715369170754 10.195024360726194 H 0.0 **** 0.06
31379 H 95.70244399673538 69.11302427464301 9.183569532421643 H 0.0 **** 0.06
31380 H 94.69679693741278 69.14332766091803 10.651589592343157 H 0.0 **** 0.06
31381 C 14.659683177126539 106.20534736019093 10.032820188960471 C 0.0 **** -0.24
31382 H 14.780512289497779 105.3476320025296 10.694007094166096 H 0.0 **** 0.06
31383 H 13.859782406275968 106.00534022682868 9.319986852238856 H 0.0 **** 0.06
31384 H 15.590522368145031 106.38296010321207 9.494192687778337 H 0.0 **** 0.06
31385 H 14.408530673927288 107.08672351713278 10.623228506210523 H 0.0 **** 0.06
31386 C 64.64327455549571 57.970103530160486 58.38307936625739 C 0.0 **** -0.24
31387 H 64.24216321569017 58.0668121971388 57.37401414724985 H 0.0 **** 0.06
31388 H 65.23597031370102 57.05767165798056 58.45192929080656 H 0.0 **** 0.06
31389 H 63.82061515793245 57.923412489625434 59.09666323285609 H 0.0 **** 0.06
31390 H 65.27173371272565 58.83144195470277 58.60797854130385 H 0.0 **** 0.06
31391 C 67.60210528037797 96.55909044556682 33.745189237867294 C 0.0 **** -0.24
31392 H 68.20681014668666 97.33855371840463 34.20895481678866 H 0.0 **** 0.06
31393 H 67.15894501636836 96.94205138386576 32.825504828570274 H 0.0 **** 0.06
31394 H 66.81064948379897 96.2570486041127 34.431513468544495 H 0.0 **** 0.06
31395 H 68.23153634033254 95.69957524084896 33.51491632116057 H 0.0 **** 0.06
31396 C 76.25463314143191 42.529689162997215 104.2207995842971 C 0.0 **** -0.24
31397 H 75.51106823971467 41.73499778752736 104.14952264045624 H 0.0 **** 0.06
31398 H 76.33948173931579 42.85457267601973 105.25774841763567 H 0.0 **** 0.06
31399 H 75.94677867675098 43.371333958921355 103.60010871741949 H 0.0 **** 0.06
31400 H 77.21824085159956 42.157622329254394 103.87540876338024 H 0.0 **** 0.06
31401 C 73.09292672083832 125.96368550066705 38.79223919177139 C 0.0 **** -0.24
31402 H 73.69765630564821 126.32738616942277 37.961759572277515 H 0.0 **** 0.06
31403 H 72.21308049624646 126.59682752635344 38.90561137525907 H 0.0 **** 0.06
31404 H 73.68234678357263 125.99087445034723 39.70976866123982 H 0.0 **** 0.06
31405 H 72.7808230482737 124.93876248451434 38.59242287262282 H 0.0 **** 0.06
31406 C 3.0309280346482126 62.52163426858789 63.825200891841035 C 0.0 **** -0.24
31407 H 4.1032107794430885 62.67803083461888 63.70560856693318 H 0.0 **** 0.06
31408 H 2.613511082883548 62.140355888726106 62.89286275698136 H 0.0 **** 0.06
31409 H 2.552248337962993 63.46773895298577 64.07812410208976 H 0.0 **** 0.06
31410 H 2.855376440823221 61.801336765388214 64.62334720368162 H 0.0 **** 0.06
31411 C 69.91118945136198 40.16377261990674 65.9107282921855 C 0.0 **** -0.24
31412 H 70.1384362101304 39.88461883804604 66.94032075123525 H 0.0 **** 0.06
31413 H 70.82223177175534 40.50507090181044 65.41823068292231 H 0.0 **** 0.06
31414 H 69.17268089276135 40.9648043013124 65.90628240123121 H 0.0 **** 0.06
31415 H 69.5135305209568 39.298792078818025 65.37988037664522 H 0.0 **** 0.06
31416 C 82.72430410407291 41.88505013134457 76.69008673873094 C 0.0 **** -0.24
31417 H 83.65749956295618 41.330684391862206 76.78939096002046 H 0.0 **** 0.06
31418 H 82.75014275481034 42.75806256171373 77.34218958922793 H 0.0 **** 0.06
31419 H 81.8893771380555 41.244117035730554 76.97400789114059 H 0.0 **** 0.06
31420 H 82.60117965480187 42.20679931439793 75.65607982924752 H 0.0 **** 0.06
31421 C 91.56709700099105 30.523620533590446 82.8388427443875 C 0.0 **** -0.24
31422 H 91.53243330721307 31.546440269833127 83.21538589403721 H 0.0 **** 0.06
31423 H 90.77304415620875 30.37825256687887 82.10643322636645 H 0.0 **** 0.06
31424 H 91.43049867004362 29.82766131321887 83.66715077025825 H 0.0 **** 0.06
31425 H 92.53345904893445 30.343090737602438 82.36812642841957 H 0.0 **** 0.06
31426 C 53.22494577143591 31.874595571537895 58.524006912961795 C 0.0 **** -0.24
31427 H 54.130307246041994 31.704963386357917 57.94027062554699 H 0.0 **** 0.06
31428 H 53.48970694323758 32.32788131275322 59.479977677976805 H 0.0 **** 0.06
31429 H 52.72247171830696 30.92358293532982 58.6989075344416 H 0.0 **** 0.06
31430 H 52.55961146775245 32.54251987373465 57.97630179333139 H 0.0 **** 0.06
31431 C 96.09682227235112 75.67528560019326 95.70497124829943 C 0.0 **** -0.24
31432 H 96.69483968598016 74.89750617737528 96.17990473152294 H 0.0 **** 0.06
31433 H 96.71948312764152 76.2379918604939 95.0096068971038 H 0.0 **** 0.06
31434 H 95.70466763421314 76.34833878675326 96.4688931971556 H 0.0 **** 0.06
31435 H 95.26818997150016 75.21807601119983 95.16470433181736 H 0.0 **** 0.06
31436 C 100.95724116602221 112.83573741954758 57.54358914943235 C 0.0 **** -0.24
31437 H 101.8524915925027 112.8709968787554 56.92091504138938 H 0.0 **** 0.06
31438 H 100.15483463821657 113.38991061434983 57.05672643964043 H 0.0 **** 0.06
31439 H 101.17299230733224 113.28287938162048 58.51410550494508 H 0.0 **** 0.06
31440 H 100.65275109604491 111.79817544384846 57.68152545066921 H 0.0 **** 0.06
31441 C 4.377793407913792 74.88998854902448 60.324627173020616 C 0.0 **** -0.24
31442 H 5.437828621950704 74.64069228408502 60.37969285262062 H 0.0 **** 0.06
31443 H 3.852012394176782 74.11548642169699 59.764110997616854 H 0.0 **** 0.06
31444 H 4.2556196096674945 75.84958817607226 59.82260768088571 H 0.0 **** 0.06
31445 H 3.9669090545453294 74.95114396835854 61.332652254470815 H 0.0 **** 0.06
31446 C 34.85914833060001 79.45346950491408 68.64252829571501 C 0.0 **** -0.24
31447 H 35.237981403644326 79.94388656896395 69.53883685641443 H 0.0 **** 0.06
31448 H 34.22844944308832 80.14814505953846 68.08693914094886 H 0.0 **** 0.06
31449 H 34.274559323226754 78.57857768576872 68.92555730693266 H 0.0 **** 0.06
31450 H 35.696952052707445 79.14317547474971 68.01699885193193 H 0.0 **** 0.06
31451 C 95.96283151001987 119.59473192955718 70.01348250748697 C 0.0 **** -0.24
31452 H 95.59048720530052 118.8674143307484 69.29145387464942 H 0.0 **** 0.06
31453 H 96.75283859097362 120.189653601902 69.55443074254339 H 0.0 **** 0.06
31454 H 96.35846321628787 119.07165794608173 70.88410563558807 H 0.0 **** 0.06
31455 H 95.147680562179 120.24898915836786 70.32168511523689 H 0.0 **** 0.06
31456 C 53.9261264907544 83.02273613249895 98.20183091857959 C 0.0 **** -0.24
31457 H 53.855308964110066 83.98712550694091 98.70630446925358 H 0.0 **** 0.06
31458 H 53.17976622209258 82.34288482966076 98.61156860417522 H 0.0 **** 0.06
31459 H 54.92124626763459 82.60570286444133 98.35443602064105 H 0.0 **** 0.06
31460 H 53.74897638463855 83.15799983661361 97.13417267637406 H 0.0 **** 0.06
31461 C 8.633974510134852 62.041605640289106 119.08424774628725 C 0.0 **** -0.24
31462 H 9.133610584479694 62.54027002456789 119.91562381778644 H 0.0 **** 0.06
31463 H 7.76928773398469 62.62914375748953 118.77571378018368 H 0.0 **** 0.06
31464 H 8.307135475336239 61.050716893825594 119.39870152201559 H 0.0 **** 0.06
31465 H 9.326883537004562 61.94793925802347 118.24845104696414 H 0.0 **** 0.06
31466 C 4.307731173205411 77.76611293319394 27.049615902656264 C 0.0 **** -0.24
31467 H 4.730803346936739 78.77027579708383 27.00997510143486 H 0.0 **** 0.06
31468 H 3.476194017805824 77.75009771482544 27.75429451854631 H 0.0 **** 0.06
31469 H 5.073540313613023 77.06199765900467 27.374036118629355 H 0.0 **** 0.06
31470 H 3.950106504438338 77.48395765304132 26.058975449680787 H 0.0 **** 0.06
31471 C 96.34853620400038 32.20686902100405 36.565821250078784 C 0.0 **** -0.24
31472 H 95.87540407251548 31.2597638481013 36.82600440235012 H 0.0 **** 0.06
31473 H 96.8626917709197 32.60770050328435 37.439951505078795 H 0.0 **** 0.06
31474 H 95.58857453089234 32.914616701483794 36.23367823413531 H 0.0 **** 0.06
31475 H 97.0684195477877 32.043440269617946 35.763116105026256 H 0.0 **** 0.06
31476 C 59.88923253057587 6.787300170781776 82.7103148082669 C 0.0 **** -0.24
31477 H 59.44752810136772 5.8941065552441785 83.15235082797312 H 0.0 **** 0.06
31478 H 59.09808292526 7.479777667824692 82.42374778715003 H 0.0 **** 0.06
31479 H 60.466906592066536 6.508461397160858 81.82918083840894 H 0.0 **** 0.06
31480 H 60.54475913391873 7.264674018817601 83.43900032210911 H 0.0 **** 0.06
31481 C 117.06718803914316 64.8705679475745 9.636492055154491 C 0.0 **** -0.24
31482 H 116.42788096819805 65.32867983287362 10.391800928035394 H 0.0 **** 0.06
31483 H 116.6681595339223 63.891138985698475 9.36947571590946 H 0.0 **** 0.06
31484 H 118.07498230903377 64.75655970239589 10.034462203673286 H 0.0 **** 0.06
31485 H 117.09571418910956 65.50493873428755 8.750397562324025 H 0.0 **** 0.06
31486 C 38.34267827911964 72.83503988389872 103.26756237141899 C 0.0 **** -0.24
31487 H 39.17565060186779 72.65453988923898 102.58745107177623 H 0.0 **** 0.06
31488 H 37.974634884515964 73.85222984829518 103.12847541105089 H 0.0 **** 0.06
31489 H 38.680300019528204 72.70808894675923 104.29573572337137 H 0.0 **** 0.06
31490 H 37.54214530445523 72.12603160773673 103.05740607581197 H 0.0 **** 0.06
31491 C 43.33745300251667 33.41531674186034 12.277509255942334 C 0.0 **** -0.24
31492 H 44.38493826431371 33.71365602110731 12.307770072114636 H 0.0 **** 0.06
31493 H 43.27046586291921 32.34146027865128 12.10092632848415 H 0.0 **** 0.06
31494 H 42.831265583420716 33.948598319453126 11.47240518512686 H 0.0 **** 0.06
31495 H 42.863142299413106 33.65755234822975 13.228935438043806 H 0.0 **** 0.06
31496 C 77.68662971150444 41.006969652115046 4.016066155535441 C 0.0 **** -0.24
31497 H 77.26442262063618 40.32097158317503 3.2815981151965445 H 0.0 **** 0.06
31498 H 76.8803043037305 41.546968330772536 4.51294870120644 H 0.0 **** 0.06
31499 H 78.34385880199176 41.71600046148796 3.5139729080057123 H 0.0 **** 0.06
31500 H 78.25637489438506 40.44299179807425 4.754450110250559 H 0.0 **** 0.06
31501 C 51.3016582782185 40.75495717236285 121.85108079356267 C 0.0 **** -0.24
31502 H 51.342120543116266 39.73835521310929 122.24294143594304 H 0.0 **** 0.06
31503 H 51.985563035352925 41.38907006194685 122.41582731463683 H 0.0 **** 0.06
31504 H 50.286601227336746 41.13984249720872 121.94591699192696 H 0.0 **** 0.06
31505 H 51.593053421544596 40.75060808569236 120.80093727728288 H 0.0 **** 0.06
31506 C 130.86666252711782 73.03605209643769 73.9679849432543 C 0.0 **** -0.24
31507 H 129.998500595919 72.4518367184082 73.66431295887327 H 0.0 **** 0.06
31508 H 131.58201867118188 72.3869075877017 74.47380162181497 H 0.0 **** 0.06
31509 H 130.5516034914501 73.82859281122447 74.64669068563171 H 0.0 **** 0.06
31510 H 131.33393054005816 73.4757193695747 73.08657142682296 H 0.0 **** 0.06
31511 C 0.6359651795352761 78.95218871569601 107.40723134438298 C 0.0 **** -0.24
31512 H 1.2307689053461104 78.33709788354325 106.73206598792206 H 0.0 **** 0.06
31513 H 1.2282788954915418 79.80646368195595 107.73672075862925 H 0.0 **** 0.06
31514 H 0.3411858600906612 78.35922488398295 108.27351972854848 H 0.0 **** 0.06
31515 H -0.25486898585711515 79.30515698121006 106.88765809216929 H 0.0 **** 0.06
31516 C 96.21946420594963 68.18308773129795 76.03853536392498 C 0.0 **** -0.24
31517 H 97.22251329510448 68.08820754377668 76.45442085612464 H 0.0 **** 0.06
31518 H 96.26460009588413 68.07742067510385 74.95453181065524 H 0.0 **** 0.06
31519 H 95.81144096545967 69.1608866169635 76.29198707891554 H 0.0 **** 0.06
31520 H 95.5803260679615 67.40361141600782 76.45326007107764 H 0.0 **** 0.06
31521 C 36.43802353538112 52.954525032852146 52.60965922338323 C 0.0 **** -0.24
31522 H 36.18469128772372 52.178755814641576 53.33235997237945 H 0.0 **** 0.06
31523 H 35.61029702801065 53.08475578900229 51.91199434010218 H 0.0 **** 0.06
31524 H 37.33346414701228 52.66253597334233 52.06162005366055 H 0.0 **** 0.06
31525 H 36.62156571253007 53.89239131271246 53.13480171193224 H 0.0 **** 0.06
31526 C 36.52256567468984 108.65861440290928 85.6391722164418 C 0.0 **** -0.24
31527 H 36.12506824327437 109.30245419665813 84.85468412001877 H 0.0 **** 0.06
31528 H 36.667957802489425 107.65304017907118 85.24411640377457 H 0.0 **** 0.06
31529 H 35.81860413914639 108.62332177493039 86.4708218276932 H 0.0 **** 0.06
31530 H 37.47650405895315 109.05553407700309 85.98638944103303 H 0.0 **** 0.06
31531 C 57.87842391090919 4.253329636703654 21.77589476503033 C 0.0 **** -0.24
31532 H 57.5341320697724 4.318252124025491 22.808457942366886 H 0.0 **** 0.06
31533 H 58.38080203647729 3.2983766614838146 21.620741550787045 H 0.0 **** 0.06
31534 H 58.57332002736075 5.067719609112913 21.57344780025676 H 0.0 **** 0.06
31535 H 57.023528419671834 4.328045303445833 21.103478402831627 H 0.0 **** 0.06
31536 C 120.01900334584508 57.096934130236534 49.139579644721096 C 0.0 **** -0.24
31537 H 120.68950008125279 57.20082062201952 49.99203382803039 H 0.0 **** 0.06
31538 H 118.9849211794334 57.13731301032402 49.484363904215726 H 0.0 **** 0.06
31539 H 120.2011588992537 56.14093621086697 48.64896494241732 H 0.0 **** 0.06
31540 H 120.19888090735418 57.90774164799835 48.4351319286573 H 0.0 **** 0.06
31541 C 78.714795768924 19.9051738652075 58.298822879202135 C 0.0 **** -0.24
31542 H 78.00767382517478 20.517167835802894 58.85842129255826 H 0.0 **** 0.06
31543 H 78.92061073561553 20.376687042157357 57.33691690857603 H 0.0 **** 0.06
31544 H 78.28874665627018 18.91544476638515 58.13447893032935 H 0.0 **** 0.06
31545 H 79.64210030424763 19.81347587229058 58.86465524571372 H 0.0 **** 0.06
31546 C 78.75915798171839 118.86440701584478 121.81699810138684 C 0.0 **** -0.24
31547 H 79.63991512635114 118.53479717748664 122.36755022576233 H 0.0 **** 0.06
31548 H 78.90512766220937 119.89145017470908 121.47984121386418 H 0.0 **** 0.06
31549 H 77.88511456550354 118.81520762038038 122.4663084960817 H 0.0 **** 0.06
31550 H 78.60738555981762 118.21607648213347 120.95321502780615 H 0.0 **** 0.06
31551 C 16.809730823689293 72.7400547496475 6.32367766325487 C 0.0 **** -0.24
31552 H 17.172311213957116 73.32133751483403 5.4750002443582275 H 0.0 **** 0.06
31553 H 16.766705241540485 73.37634481064649 7.207495638353198 H 0.0 **** 0.06
31554 H 17.487653007433373 71.90680268475299 6.508122689964711 H 0.0 **** 0.06
31555 H 15.813871178363215 72.35615789088018 6.102301875739439 H 0.0 **** 0.06
31556 C 6.414006049853981 7.046986989396288 74.07396469870717 C 0.0 **** -0.24
31557 H 6.768460182860508 8.037347914102497 73.7869402797621 H 0.0 **** 0.06
31558 H 5.328654369213325 7.008815546171348 73.98463887954189 H 0.0 **** 0.06
31559 H 6.702223346693586 6.844176431308512 75.10621574801337 H 0.0 **** 0.06
31560 H 6.860119039459306 6.298703496505198 73.41819451526639 H 0.0 **** 0.06
31561 C 12.986471670831008 100.98388243021431 16.46633163189162 C 0.0 **** -0.24
31562 H 12.117483514411958 100.49526315530211 16.907810166413498 H 0.0 **** 0.06
31563 H 13.105138074013439 101.97671884239395 16.901574870597784 H 0.0 **** 0.06
31564 H 12.843792289865291 101.07297556485437 15.389191668412138 H 0.0 **** 0.06
31565 H 13.877801484653133 100.38970865483718 16.667428993506604 H 0.0 **** 0.06
31566 C 46.15811411472356 35.58152289942376 129.2285265552979 C 0.0 **** -0.24
31567 H 46.42431733975167 34.9848363270882 128.3561983869974 H 0.0 **** 0.06
31568 H 46.881693384657126 35.40286430364711 130.0247939071691 H 0.0 **** 0.06
31569 H 45.162721514530716 35.298742796189245 129.57213752075353 H 0.0 **** 0.06
31570 H 46.163676566632375 36.63818937132733 128.96267048805572 H 0.0 **** 0.06
31571 C 101.52308217534977 123.7760039917176 44.534706387330566 C 0.0 **** -0.24
31572 H 102.07698685697152 122.83729068129884 44.551150327806404 H 0.0 **** 0.06
31573 H 100.96312038331229 123.8838814243045 45.463880077315174 H 0.0 **** 0.06
31574 H 100.83367550646757 123.77602893825988 43.69116513553021 H 0.0 **** 0.06
31575 H 102.22183474670642 124.60704139030562 44.43299493989327 H 0.0 **** 0.06
31576 C 31.226472734121536 17.16042654975257 106.39025307234905 C 0.0 **** -0.24
31577 H 31.415505743340212 17.166379207314804 107.46409458850297 H 0.0 **** 0.06
31578 H 30.744978042628055 16.223197702842867 106.11137601176534 H 0.0 **** 0.06
31579 H 32.17123648972465 17.256800972078906 105.8548972026957 H 0.0 **** 0.06
31580 H 30.575294280811953 17.994852106948883 106.13135919907003 H 0.0 **** 0.06
31581 C 17.15335493800717 62.7014513125215 105.97044268196697 C 0.0 **** -0.24
31582 H 16.773599780016156 61.83219274079124 105.4324249393194 H 0.0 **** 0.06
31583 H 16.981961095801324 63.599117450158715 105.37508462886713 H 0.0 **** 0.06
31584 H 18.222144596132495 62.581132207621934 106.14619371467273 H 0.0 **** 0.06
31585 H 16.636257499609627 62.79311665940372 106.92437351955269 H 0.0 **** 0.06
31586 C 98.72362955386785 79.85235435495385 40.09926903520761 C 0.0 **** -0.24
31587 H 99.64558512384991 80.40483943232489 39.9162262206973 H 0.0 **** 0.06
31588 H 98.03138038546541 80.47710968846336 40.66370090200115 H 0.0 **** 0.06
31589 H 98.94846854035728 78.95078637785281 40.67001428470127 H 0.0 **** 0.06
31590 H 98.27103763184783 79.57567084655159 39.1467322682152 H 0.0 **** 0.06
31591 C 128.5430729999626 7.1175362819608665 102.06818473336638 C 0.0 **** -0.24
31592 H 128.06308130706535 6.149103231510907 101.9314557800055 H 0.0 **** 0.06
31593 H 128.60766395268897 7.629950439197415 101.10864569104385 H 0.0 **** 0.06
31594 H 129.54563967286077 6.972347296312847 102.4708666296534 H 0.0 **** 0.06
31595 H 127.95596798397466 7.719347300379042 102.7630485744128 H 0.0 **** 0.06
31596 C 78.61951869205856 56.165837606229545 72.84811834373998 C 0.0 **** -0.24
31597 H 79.04177774707611 56.54986719092099 71.91981774275249 H 0.0 **** 0.06
31598 H 77.54167492453163 56.047554194816456 72.73435829222268 H 0.0 **** 0.06
31599 H 78.82588178109441 56.86486808191627 73.6583443100138 H 0.0 **** 0.06
31600 H 79.06838291605945 55.19904557664516 73.07905259323154 H 0.0 **** 0.06
31601 C 76.54709815393494 91.58214286133052 128.616697633348 C 0.0 **** -0.24
31602 H 76.95036417051398 91.0164151645296 129.45561364238765 H 0.0 **** 0.06
31603 H 75.45757353413467 91.55745172194352 128.65078518453487 H 0.0 **** 0.06
31604 H 76.8918556748178 91.13970895198517 127.68138323116244 H 0.0 **** 0.06
31605 H 76.8889177249277 92.61512796586875 128.67763692218386 H 0.0 **** 0.06
31606 C 76.91768021305344 117.95233373031994 57.825205475432114 C 0.0 **** -0.24
31607 H 76.47209210673702 118.03417411982889 58.81695640170042 H 0.0 **** 0.06
31608 H 77.51489484528352 118.84176995231763 57.621346632488155 H 0.0 **** 0.06
31609 H 76.12745427689137 117.86558636867937 57.07893650293718 H 0.0 **** 0.06
31610 H 77.55459586161095 117.06886327716518 57.7860409120573 H 0.0 **** 0.06
31611 C 37.7069911879019 65.85743037377624 108.11674581641532 C 0.0 **** -0.24
31612 H 37.45657614330827 66.31003672677966 109.07665847604011 H 0.0 **** 0.06
31613 H 37.892989882474396 66.6417198787535 107.38268454324259 H 0.0 **** 0.06
31614 H 36.87810624104221 65.23438326068171 107.78200044442912 H 0.0 **** 0.06
31615 H 38.601569875047474 65.24388438960563 108.22814520763603 H 0.0 **** 0.06
31616 C 49.23942356892795 118.7408432026334 85.55461534917981 C 0.0 **** -0.24
31617 H 50.11489430781569 118.97809837904303 84.95067296637433 H 0.0 **** 0.06
31618 H 48.7267886402872 119.66361544304701 85.82854665668543 H 0.0 **** 0.06
31619 H 49.55349358191981 118.21706313911606 86.45820597423489 H 0.0 **** 0.06
31620 H 48.56435351878517 118.10611361813086 84.98160733305798 H 0.0 **** 0.06
31621 C 6.1438634789143975 59.453167967314485 126.09900528715755 C 0.0 **** -0.24
31622 H 5.714838124783512 59.50354775497736 125.09838269205179 H 0.0 **** 0.06
31623 H 6.0037512368579655 58.450434063655706 126.50407541502616 H 0.0 **** 0.06
31624 H 5.64669220445046 60.17883158916365 126.74308022785212 H 0.0 **** 0.06
31625 H 7.208174165618402 59.68099426758738 126.04963573575148 H 0.0 **** 0.06
31626 C 74.67665757474944 21.3669336828455 14.052074942315727 C 0.0 **** -0.24
31627 H 75.7449326307497 21.150474331780003 14.042523670554345 H 0.0 **** 0.06
31628 H 74.14832004053963 20.61151970057314 13.470134520816742 H 0.0 **** 0.06
31629 H 74.50068595006854 22.350354670282798 13.616156809284064 H 0.0 **** 0.06
31630 H 74.31333238476375 21.35443656193661 15.080314298027247 H 0.0 **** 0.06
31631 C 11.621612663966857 76.49316272364791 102.50887270201133 C 0.0 **** -0.24
31632 H 11.32524443881664 76.59980864443145 103.55271561751326 H 0.0 **** 0.06
31633 H 10.864346963813887 76.94548995745413 101.86865618172754 H 0.0 **** 0.06
31634 H 11.718973986645494 75.43554478219164 102.266341337661 H 0.0 **** 0.06
31635 H 12.577471757918374 76.99206417856254 102.34996019533247 H 0.0 **** 0.06
31636 C 110.94710412841776 0.9142234159390803 14.688679952030611 C 0.0 **** -0.24
31637 H 109.92357726911605 0.5763435785244191 14.853593571080346 H 0.0 **** 0.06
31638 H 111.04966399197193 1.27485842964996 13.665246844927502 H 0.0 **** 0.06
31639 H 111.63411822593527 0.08336094543710004 14.853818493514229 H 0.0 **** 0.06
31640 H 111.17895591587892 1.7206908223416981 15.384034908977835 H 0.0 **** 0.06
31641 C 106.47037893087389 48.4117010248485 31.939286755206012 C 0.0 **** -0.24
31642 H 105.71860108336469 47.63747293240692 31.7908370448733 H 0.0 **** 0.06
31643 H 107.46425478700036 47.96277659327967 31.914848902192375 H 0.0 **** 0.06
31644 H 106.31237487637424 48.89054349615009 32.905477760170584 H 0.0 **** 0.06
31645 H 106.38730627602945 49.154751084583836 31.147153608122437 H 0.0 **** 0.06
31646 C 116.94610398628001 76.9227582282902 14.770241927086943 C 0.0 **** -0.24
31647 H 116.97736911021093 76.00229636720445 15.353536830195566 H 0.0 **** 0.06
31648 H 117.63574015625618 77.64936993874511 15.2011211531308 H 0.0 **** 0.06
31649 H 115.93405662984567 77.327910759725 14.78494132651096 H 0.0 **** 0.06
31650 H 117.23725072466085 76.71007381072229 13.741068255503421 H 0.0 **** 0.06
31651 C 35.10364449501165 28.252839593487636 51.202954024772 C 0.0 **** -0.24
31652 H 35.20963341368591 27.423731018914538 50.503303544987375 H 0.0 **** 0.06
31653 H 36.086474451198995 28.67742321356741 51.41334088255087 H 0.0 **** 0.06
31654 H 34.65728902982525 27.891797268353457 52.12900027325145 H 0.0 **** 0.06
31655 H 34.463611963949546 29.01836631419303 50.76441364755195 H 0.0 **** 0.06
31656 C 27.268252397267844 30.61331813025967 129.4766428328134 C 0.0 **** -0.24
31657 H 26.710292794179324 30.900897223277767 130.3670892095365 H 0.0 **** 0.06
31658 H 26.64531358534567 29.975883799077764 128.84790420002395 H 0.0 **** 0.06
31659 H 28.16576578071058 30.06818465932733 129.77134569346427 H 0.0 **** 0.06
31660 H 27.55226915562981 31.506801097496506 128.92081000894717 H 0.0 **** 0.06
31661 C 120.4506451523946 49.799641744533005 77.33208459671883 C 0.0 **** -0.24
31662 H 119.57677403126394 49.35831114748839 77.81359073247543 H 0.0 **** 0.06
31663 H 121.19284130915128 50.05284747214682 78.0900273842631 H 0.0 **** 0.06
31664 H 120.15370499217948 50.701534892872814 76.7978452327624 H 0.0 **** 0.06
31665 H 120.87728561126727 49.08391525539781 76.62937841335659 H 0.0 **** 0.06
31666 C 123.83441845820099 54.20233169177585 48.53009759658784 C 0.0 **** -0.24
31667 H 124.47414667549552 53.326980129315885 48.41215272583477 H 0.0 **** 0.06
31668 H 122.91100269816799 53.911185177372204 49.03189593849149 H 0.0 **** 0.06
31669 H 123.60063098171192 54.616259034609115 47.54955284777546 H 0.0 **** 0.06
31670 H 124.35307026542229 54.95171297331608 49.127454632630304 H 0.0 **** 0.06
31671 C 6.407328084809535 64.2230146046146 83.66941277993416 C 0.0 **** -0.24
31672 H 5.340187582100725 64.4032242688412 83.53352243762035 H 0.0 **** 0.06
31673 H 6.975119110547979 64.94204191679916 83.07912087764134 H 0.0 **** 0.06
31674 H 6.648988634190459 63.2108711929194 83.34249007842178 H 0.0 **** 0.06
31675 H 6.662257450182892 64.33533133845066 84.72353633889458 H 0.0 **** 0.06
31676 C 68.83013332329324 24.48375136689515 125.24812927353653 C 0.0 **** -0.24
31677 H 68.90602136755194 24.509203125433743 124.16139579982878 H 0.0 **** 0.06
31678 H 67.78955912964818 24.329812981493347 125.5353919434548 H 0.0 **** 0.06
31679 H 69.18516920498708 25.4281758191338 125.65946416752584 H 0.0 **** 0.06
31680 H 69.43912739720692 23.666623975388504 125.63587217692124 H 0.0 **** 0.06
31681 C 8.0029687199049 13.008115839205004 104.81899977502225 C 0.0 **** -0.24
31682 H 9.037827657419228 12.944747536918527 104.48094508948019 H 0.0 **** 0.06
31683 H 7.66142708384244 12.019523985582623 105.1273761376647 H 0.0 **** 0.06
31684 H 7.377232060465857 13.37097009652257 104.00278107609199 H 0.0 **** 0.06
31685 H 7.937550311618338 13.696022545382249 105.66130684616972 H 0.0 **** 0.06
31686 C 128.9229891126067 106.26753573041168 85.4168035896993 C 0.0 **** -0.24
31687 H 129.25756367002552 107.00601140582266 86.1446016035782 H 0.0 **** 0.06
31688 H 129.2529733976963 105.27531314906005 85.72742923246886 H 0.0 **** 0.06
31689 H 129.346607204705 106.50217014410502 84.44028432556942 H 0.0 **** 0.06
31690 H 127.83508595533735 106.28533142599721 85.35446192790471 H 0.0 **** 0.06
31691 C 38.45467904600713 15.903862241729882 100.42707513258654 C 0.0 **** -0.24
31692 H 39.29996588764209 16.59185978680648 100.42566481711694 H 0.0 **** 0.06
31693 H 38.17098600667799 15.679106919839171 101.4559550369583 H 0.0 **** 0.06
31694 H 38.73675530296171 14.982001580600809 99.91908956241306 H 0.0 **** 0.06
31695 H 37.61173776898053 16.36143351601777 99.90942757907106 H 0.0 **** 0.06
31696 C 104.46684477201156 27.78977275564148 36.473211120628946 C 0.0 **** -0.24
31697 H 104.13454478843737 28.643306401269058 37.06410832518202 H 0.0 **** 0.06
31698 H 104.75760590350578 26.976951216625423 37.138718130946046 H 0.0 **** 0.06
31699 H 105.32130132042424 28.08189078545098 35.86175989586266 H 0.0 **** 0.06
31700 H 103.65444486716639 27.457344777706055 35.82612027171936 H 0.0 **** 0.06
31701 C 114.26100935514101 61.71491973018162 40.47313061217611 C 0.0 **** -0.24
31702 H 115.07685081018205 62.41496946416362 40.65038044400444 H 0.0 **** 0.06
31703 H 114.52451433805511 61.05150317536825 39.64761305783256 H 0.0 **** 0.06
31704 H 113.35700489067771 62.268506490224524 40.22011465528951 H 0.0 **** 0.06
31705 H 114.08610462831182 61.12385775362657 41.37215594612968 H 0.0 **** 0.06
31706 C 64.51047318467006 130.10717070925418 2.747622233598122 C 0.0 **** -0.24
31707 H 63.465531637009946 130.31995397639784 2.522125207656302 H 0.0 **** 0.06
31708 H 64.86824317153597 130.80479007052182 3.505792670119547 H 0.0 **** 0.06
31709 H 65.10722674233745 130.21679083278906 1.841915819681276 H 0.0 **** 0.06
31710 H 64.60089118779686 129.08714795730793 3.1206552369351357 H 0.0 **** 0.06
31711 C 59.617072629323445 102.34651623274641 98.39880537856772 C 0.0 **** -0.24
31712 H 59.23382107838228 102.08753210199338 97.41214489894031 H 0.0 **** 0.06
31713 H 60.63319352892262 102.72850095131314 98.30445805323433 H 0.0 **** 0.06
31714 H 59.61792277287668 101.45982609749356 99.03248537065855 H 0.0 **** 0.06
31715 H 58.98144184152119 103.11224361163497 98.8456920114944 H 0.0 **** 0.06
31716 C 42.80124418002555 89.23463182033504 101.58183418703248 C 0.0 **** -0.24
31717 H 43.197396614193025 89.81343277521611 100.74780772334515 H 0.0 **** 0.06
31718 H 43.583551502705006 88.58608532965891 101.97793045144937 H 0.0 **** 0.06
31719 H 41.96470185013203 88.62591799557558 101.2371170000986 H 0.0 **** 0.06
31720 H 42.459297108441035 89.91168056473916 102.36457850192386 H 0.0 **** 0.06
31721 C 113.30659384038525 111.28388596012563 74.0833084121891 C 0.0 **** -0.24
31722 H 113.17722350783767 110.97140361233576 73.0464628868925 H 0.0 **** 0.06
31723 H 112.44922830700419 111.88344076392146 74.39136347848503 H 0.0 **** 0.06
31724 H 114.21672143449997 111.87686976145366 74.17294343611297 H 0.0 **** 0.06
31725 H 113.38180653710744 110.40280976627076 74.72104526367607 H 0.0 **** 0.06
31726 C 74.83647976881215 46.38351319738143 17.084281783385173 C 0.0 **** -0.24
31727 H 74.01179892370756 46.68305475486409 16.43727881013349 H 0.0 **** 0.06
31728 H 74.45475259832696 46.17230961121332 18.0829292963399 H 0.0 **** 0.06
31729 H 75.56783759950271 47.189872639074 17.136699620660387 H 0.0 **** 0.06
31730 H 75.30988602363192 45.48908904648867 16.67842409100104 H 0.0 **** 0.06
31731 C 4.376626399143845 50.00976348293814 82.59883990105442 C 0.0 **** -0.24
31732 H 3.5959740500186683 50.57726471134849 83.10689582198921 H 0.0 **** 0.06
31733 H 4.7495812699141595 50.585739443640364 81.75154133300691 H 0.0 **** 0.06
31734 H 3.9664342346686112 49.06494068848602 82.24375584752397 H 0.0 **** 0.06
31735 H 5.193182381365887 49.81498789537014 83.29358750080593 H 0.0 **** 0.06
31736 C 111.22088212277731 67.95751376862441 61.50830684167937 C 0.0 **** -0.24
31737 H 111.49390319569318 66.90922445284644 61.383116862266235 H 0.0 **** 0.06
31738 H 110.28382560162413 68.02457944816413 62.061407883370705 H 0.0 **** 0.06
31739 H 111.09867576046616 68.4202417093984 60.528455839420516 H 0.0 **** 0.06
31740 H 112.00586125840334 68.47459619131493 62.058694799765064 H 0.0 **** 0.06
31741 C 10.797693064512579 84.37547877836136 75.13830069137694 C 0.0 **** -0.24
31742 H 11.624820443694048 83.6732224684377 75.24424816546647 H 0.0 **** 0.06
31743 H 9.861238513661185 83.82338852444337 75.0604246404256 H 0.0 **** 0.06
31744 H 10.943213679014548 84.97491524973154 74.2393818059696 H 0.0 **** 0.06
31745 H 10.763453093454363 85.02930770317784 76.00927186410146 H 0.0 **** 0.06
31746 C 129.6862195121841 54.52508093459595 47.522821167908376 C 0.0 **** -0.24
31747 H 129.1963498731514 55.391800714083686 47.9650574786005 H 0.0 **** 0.06
31748 H 130.66217514152441 54.8183074494431 47.13529010990597 H 0.0 **** 0.06
31749 H 129.07402514985444 54.13732128610346 46.708990134176986 H 0.0 **** 0.06
31750 H 129.81319651450752 53.75307874930003 48.28148704498699 H 0.0 **** 0.06
31751 C 83.32753010177487 52.02125304111482 80.35992423904099 C 0.0 **** -0.24
31752 H 82.43817552934526 51.62332903352237 79.8699390659645 H 0.0 **** 0.06
31753 H 84.05647282695833 51.221289410410364 80.49302275003762 H 0.0 **** 0.06
31754 H 83.05329019228121 52.42864374015788 81.33403556223038 H 0.0 **** 0.06
31755 H 83.75919983151852 52.809465553868975 79.74439953725354 H 0.0 **** 0.06
31756 C 35.95952675356309 26.793683261530788 103.10062284971036 C 0.0 **** -0.24
31757 H 35.73785616076655 26.396266842517747 102.1103507728327 H 0.0 **** 0.06
31758 H 36.739524605592315 27.551658782923994 103.02198452775997 H 0.0 **** 0.06
31759 H 36.30041564500236 25.986120671320577 103.74869299290867 H 0.0 **** 0.06
31760 H 35.05826189608007 27.241470010394664 103.52102769484316 H 0.0 **** 0.06
31761 C 105.25093093967831 90.0414454944916 110.80306453419811 C 0.0 **** -0.24
31762 H 104.93525942214502 90.00478238081323 109.75936251634204 H 0.0 **** 0.06
31763 H 104.38436382943907 89.9018198088624 111.4497163790345 H 0.0 **** 0.06
31764 H 105.70718763237531 91.00911889669467 111.00956498564236 H 0.0 **** 0.06
31765 H 105.97628859974432 89.25036434346646 110.99022030983039 H 0.0 **** 0.06
31766 C 22.74577130778229 99.99353778754922 13.720928191247964 C 0.0 **** -0.24
31767 H 23.81271168938423 99.79383596460434 13.814018506892864 H 0.0 **** 0.06
31768 H 22.396054480161382 99.65087441577538 12.746760105895987 H 0.0 **** 0.06
31769 H 22.566919935394168 101.06462268389443 13.815806045467895 H 0.0 **** 0.06
31770 H 22.2076137026867 99.46385134864892 14.506988708317209 H 0.0 **** 0.06
31771 C 78.54932155865268 70.45167281188836 127.67823294999555 C 0.0 **** -0.24
31772 H 79.44173730368354 70.36058471838957 127.05786721251073 H 0.0 **** 0.06
31773 H 77.73035544177601 70.8503778272969 127.07996106225465 H 0.0 **** 0.06
31774 H 78.7530113133042 71.12487008834853 128.51011773944776 H 0.0 **** 0.06
31775 H 78.2743370188092 69.46936775787509 128.06352479131266 H 0.0 **** 0.06
31776 C 1.6368851830213202 103.45691903659701 31.8794559956088 C 0.0 **** -0.24
31777 H 0.6834035243335848 102.9286625648585 31.8837340496126 H 0.0 **** 0.06
31778 H 2.308828141484554 102.99991584614996 32.60600827982294 H 0.0 **** 0.06
31779 H 1.473184640375763 104.50258307790067 32.14177710844932 H 0.0 **** 0.06
31780 H 2.0801886647582535 103.3979200261245 30.885777189357157 H 0.0 **** 0.06
31781 C 21.4644559845936 76.84500881954439 92.39561975701687 C 0.0 **** -0.24
31782 H 22.140396480875467 77.36123921948791 91.71421967883896 H 0.0 **** 0.06
31783 H 21.69351230178833 77.13546676721786 93.42255794418344 H 0.0 **** 0.06
31784 H 21.5894992047277 75.767624838889 92.2864161260953 H 0.0 **** 0.06
31785 H 20.435113300616194 77.11724438864628 92.16230901369357 H 0.0 **** 0.06
31786 C 123.8694249885279 109.00197342461647 27.839256422128358 C 0.0 **** -0.24
31787 H 124.31125779183198 108.11430810558595 28.290355573163282 H 0.0 **** 0.06
31788 H 122.8824104966859 109.17500859910504 28.269282868513727 H 0.0 **** 0.06
31789 H 123.77545296618896 108.8537238133587 26.76294705876623 H 0.0 **** 0.06
31790 H 124.50595046400045 109.86449052491832 28.033039701300538 H 0.0 **** 0.06
31791 C 43.414692455431656 96.35919878541645 0.9762739568477912 C 0.0 **** -0.24
31792 H 43.59662610273392 97.3050411749405 1.4865697463273477 H 0.0 **** 0.06
31793 H 44.15327772051821 95.62422841280701 1.299022969811574 H 0.0 **** 0.06
31794 H 43.495006219719784 96.50561814792613 -0.10085349087592022 H 0.0 **** 0.06
31795 H 42.414127249365116 96.00052569368765 1.2204960384185313 H 0.0 **** 0.06
31796 C 32.64796233907283 63.806466392998715 71.69074576617106 C 0.0 **** -0.24
31797 H 32.26404920482851 64.29619044958068 72.58579299177084 H 0.0 **** 0.06
31798 H 33.3921416135604 63.06279906778212 71.97349037347749 H 0.0 **** 0.06
31799 H 33.10628023816915 64.5503256250174 71.0382308812952 H 0.0 **** 0.06
31800 H 31.827472258732527 63.31805441696878 71.16370656580801 H 0.0 **** 0.06
31801 C 7.694615448133732 124.34055150101047 73.60196496870101 C 0.0 **** -0.24
31802 H 6.897775821317396 124.0237271137314 74.27409689764244 H 0.0 **** 0.06
31803 H 7.26272666964033 124.85414095525043 72.74350915890355 H 0.0 **** 0.06
31804 H 8.252008175328996 123.46715562966091 73.26199949381181 H 0.0 **** 0.06
31805 H 8.36741613461814 125.0168685169063 74.1308535148586 H 0.0 **** 0.06
31806 C 5.866073124404039 112.91394536501157 58.927198630614924 C 0.0 **** -0.24
31807 H 5.470173074332877 111.90845391945207 58.78041430019135 H 0.0 **** 0.06
31808 H 5.076413302569904 113.64460429198367 58.74752821677514 H 0.0 **** 0.06
31809 H 6.687106970011854 113.0866653101789 58.23175942805477 H 0.0 **** 0.06
31810 H 6.228936595995208 113.01446816944484 59.94993452881006 H 0.0 **** 0.06
31811 C 101.46230589495684 95.9160786197839 121.27215814355887 C 0.0 **** -0.24
31812 H 101.97848251566847 94.99041009405354 121.01673110695718 H 0.0 **** 0.06
31813 H 102.10679034062383 96.52881427786005 121.90274065292671 H 0.0 **** 0.06
31814 H 100.54298860382823 95.68425541795696 121.80828601190736 H 0.0 **** 0.06
31815 H 101.22242321685047 96.46128007168494 120.35895981802345 H 0.0 **** 0.06
31816 C 115.37508403868019 32.231146528636884 112.32676443637145 C 0.0 **** -0.24
31817 H 115.88261842650834 31.30290803715772 112.5876716465592 H 0.0 **** 0.06
31818 H 115.53698749008177 32.968083714882 113.11364075816648 H 0.0 **** 0.06
31819 H 114.30739790029004 32.042834972591535 112.21889192552077 H 0.0 **** 0.06
31820 H 115.77369765220084 32.61111850942534 111.38599455870573 H 0.0 **** 0.06
31821 C 38.65184925194703 84.56312028363703 51.91771072837429 C 0.0 **** -0.24
31822 H 38.80062529693302 84.81725522583292 50.86817435585289 H 0.0 **** 0.06
31823 H 39.608249554493085 84.2910973532534 52.363999248686184 H 0.0 **** 0.06
31824 H 37.96298449300244 83.72122985791913 51.99228530761303 H 0.0 **** 0.06
31825 H 38.23514817759937 85.42222063867291 52.44406260678403 H 0.0 **** 0.06
31826 C 47.21494445146865 47.65919876014394 43.093614165870605 C 0.0 **** -0.24
31827 H 47.68074383420567 48.49407017522239 42.56944514711293 H 0.0 **** 0.06
31828 H 47.94520295413787 46.860085586273016 43.22438561642616 H 0.0 **** 0.06
31829 H 46.3715598024482 47.28981649121519 42.511020405244466 H 0.0 **** 0.06
31830 H 46.864047201087686 47.99496897055687 44.070095618312905 H 0.0 **** 0.06
31831 C 99.09071544423529 44.67903250830469 38.69849105298232 C 0.0 **** -0.24
31832 H 98.41133949431728 44.14188828663694 38.03659085037626 H 0.0 **** 0.06
31833 H 99.90230747405693 44.01648231261905 39.000891682638525 H 0.0 **** 0.06
31834 H 98.54687674263712 45.01409667371783 39.582599094660736 H 0.0 **** 0.06
31835 H 99.50119930888175 45.541981403126414 38.17525247706757 H 0.0 **** 0.06
31836 C 21.72748636567559 93.9956597094166 57.37533342873493 C 0.0 **** -0.24
31837 H 21.357094446163728 94.22996612018481 56.37793845509077 H 0.0 **** 0.06
31838 H 21.031286201720803 94.38096939499187 58.121119804091464 H 0.0 **** 0.06
31839 H 22.704716448408334 94.45794311575749 57.51723102346878 H 0.0 **** 0.06
31840 H 21.81741303291591 92.9145854688898 57.4850566820692 H 0.0 **** 0.06
31841 C 10.683198661900995 106.48016453511349 7.9817009622179285 C 0.0 **** -0.24
31842 H 10.469740779797615 106.04720003516229 8.959093900672826 H 0.0 **** 0.06
31843 H 11.678979939570173 106.17339317647588 7.65961165082382 H 0.0 **** 0.06
31844 H 10.641812283064201 107.56716385245065 8.048335037836296 H 0.0 **** 0.06
31845 H 9.94404637810997 106.13138569410009 7.260483454390794 H 0.0 **** 0.06
31846 C 88.38956033163163 12.032420270105245 116.39554275800151 C 0.0 **** -0.24
31847 H 88.44991011368572 13.119924776837706 116.35500496273764 H 0.0 **** 0.06
31848 H 87.74967129020396 11.673813871964025 115.58942866999706 H 0.0 **** 0.06
31849 H 87.97000801718474 11.727569815633792 117.35523991354083 H 0.0 **** 0.06
31850 H 89.38736835653933 11.608887049542332 116.28451941451213 H 0.0 **** 0.06
31851 C 61.47328274808325 117.4733739053196 56.13830607359239 C 0.0 **** -0.24
31852 H 61.04512288478685 117.66238184292126 55.154290038380054 H 0.0 **** 0.06
31853 H 61.701633492372196 118.42318061805464 56.62345316669945 H 0.0 **** 0.06
31854 H 62.388811168203745 116.89130687751582 56.03150638530283 H 0.0 **** 0.06
31855 H 60.75863893118492 116.91848714981889 56.74514979687194 H 0.0 **** 0.06
31856 C 10.474826296890171 93.51820767962951 113.2001858065753 C 0.0 **** -0.24
31857 H 10.743026873686063 94.49344421821684 112.79211143268212 H 0.0 **** 0.06
31858 H 11.327173872680135 93.10270570169232 113.73673881036966 H 0.0 **** 0.06
31859 H 10.19412086628273 92.84921835203218 112.38731917911274 H 0.0 **** 0.06
31860 H 9.633486654701755 93.63046396266802 113.88544029269984 H 0.0 **** 0.06
31861 C 68.93498164766476 119.82796692052351 35.02835852955724 C 0.0 **** -0.24
31862 H 67.88451587240482 119.99834716567818 35.26333868938809 H 0.0 **** 0.06
31863 H 69.43181333953615 119.38129319930815 35.88946497652316 H 0.0 **** 0.06
31864 H 69.41243161011317 120.77738491657892 34.78517445619207 H 0.0 **** 0.06
31865 H 69.01207367469439 119.15361488328935 34.17463802558416 H 0.0 **** 0.06
31866 C 119.32801753364848 92.8003730720166 63.32819995257461 C 0.0 **** -0.24
31867 H 119.28768816195178 93.83658415725064 63.66408922404344 H 0.0 **** 0.06
31868 H 118.35181618136872 92.50560457961726 62.94367049469878 H 0.0 **** 0.06
31869 H 119.59771479926138 92.15822428431514 64.16646230454461 H 0.0 **** 0.06
31870 H 120.07425284882018 92.70238023663717 62.5402953382241 H 0.0 **** 0.06
31871 C 56.249045240417885 118.80182207000563 93.87434227366109 C 0.0 **** -0.24
31872 H 56.09185852552656 117.79238578063637 94.25567970839177 H 0.0 **** 0.06
31873 H 55.44128161625295 119.44913146104726 94.21734228455223 H 0.0 **** 0.06
31874 H 56.26068501631079 118.78070362774076 92.78495209805703 H 0.0 **** 0.06
31875 H 57.20236369347788 119.18404386941995 94.24138311353761 H 0.0 **** 0.06
31876 C 66.4358847646678 119.43214250305596 93.12898104194088 C 0.0 **** -0.24
31877 H 67.16335424713586 120.24303343184499 93.09478289238474 H 0.0 **** 0.06
31878 H 66.39015025940517 119.0285076130849 94.1412516529475 H 0.0 **** 0.06
31879 H 66.73480610771216 118.64633499702256 92.43631591250258 H 0.0 **** 0.06
31880 H 65.45488313581282 119.81329832098736 92.84502237236576 H 0.0 **** 0.06
31881 C 1.9476744670350286 72.4593864864523 58.211457892721 C 0.0 **** -0.24
31882 H 2.4750431260733876 73.41350354097526 58.1786936854449 H 0.0 **** 0.06
31883 H 1.3816802524948741 72.32673923182844 57.28927692395985 H 0.0 **** 0.06
31884 H 1.2668164306314509 72.44958955525377 59.062312049943614 H 0.0 **** 0.06
31885 H 2.6705647491498326 71.64969437595309 58.31433564738546 H 0.0 **** 0.06
31886 C 2.81733501757725 19.312389827136336 117.74291923313938 C 0.0 **** -0.24
31887 H 2.4177657873006524 20.314818773231814 117.58911054665573 H 0.0 **** 0.06
31888 H 2.155430535450762 18.755602988632347 118.4065655003677 H 0.0 **** 0.06
31889 H 3.8074477089268726 19.382392055209763 118.19176100559028 H 0.0 **** 0.06
31890 H 2.887603440248256 18.798653839274763 116.7846457335897 H 0.0 **** 0.06
31891 C 16.934428274676634 73.57907317769224 41.58162077493941 C 0.0 **** -0.24
31892 H 16.823489197526342 74.56003397545061 42.04522511422965 H 0.0 **** 0.06
31893 H 17.859635995109272 73.11706354340805 41.92593347663865 H 0.0 **** 0.06
31894 H 16.965254027986504 73.69166030856186 40.49762335212847 H 0.0 **** 0.06
31895 H 16.088709712988248 72.94968082480673 41.857776209654844 H 0.0 **** 0.06
31896 C 63.947130597100085 63.3574801294119 24.8257700872567 C 0.0 **** -0.24
31897 H 63.52788001404761 63.86798068663933 23.959190283193323 H 0.0 **** 0.06
31898 H 64.84552460682036 63.88003836661167 25.155766475387082 H 0.0 **** 0.06
31899 H 64.20093168116608 62.33275712705134 24.556491077298688 H 0.0 **** 0.06
31900 H 63.213815396008016 63.34959850965194 25.632919536096978 H 0.0 **** 0.06
31901 C 86.90107930884172 62.4661169915387 54.552980851870984 C 0.0 **** -0.24
31902 H 86.36953333473704 62.647380141777234 53.619480479239655 H 0.0 **** 0.06
31903 H 87.73308067753506 61.785857481428906 54.37103253491955 H 0.0 **** 0.06
31904 H 86.22044746941904 62.02057050465187 55.27846007019656 H 0.0 **** 0.06
31905 H 87.28128680816278 63.41025056581954 54.944303705393395 H 0.0 **** 0.06
31906 C 95.62059006448749 47.86700446994524 82.41693877209715 C 0.0 **** -0.24
31907 H 95.75138876956692 47.52234274779025 81.39168738523452 H 0.0 **** 0.06
31908 H 96.57328225133199 47.80757577527257 82.94407760475016 H 0.0 **** 0.06
31909 H 94.88691803339884 47.23687423601848 82.92105957668164 H 0.0 **** 0.06
31910 H 95.27114971595142 48.89886536749077 82.41146776368484 H 0.0 **** 0.06
31911 C 95.17325209409319 129.42322306195365 15.170793900188443 C 0.0 **** -0.24
31912 H 95.72712156349007 129.5557934667341 16.100341739328485 H 0.0 **** 0.06
31913 H 95.46583208570928 128.4816616171963 14.705537527862646 H 0.0 **** 0.06
31914 H 95.39504961239106 130.24826583203279 14.494941343986227 H 0.0 **** 0.06
31915 H 94.10397779092074 129.40615695299036 15.38498484598935 H 0.0 **** 0.06
31916 C 97.20229614910136 116.98065512839565 88.86769029695425 C 0.0 **** -0.24
31917 H 97.50824821506058 115.93596265931563 88.93810017697163 H 0.0 **** 0.06
31918 H 96.13602398753784 117.03165455795681 88.64560191878115 H 0.0 **** 0.06
31919 H 97.76350258231349 117.46959755123726 88.07237713302088 H 0.0 **** 0.06
31920 H 97.40103730686565 117.48211039234212 89.8147320202331 H 0.0 **** 0.06
31921 C 82.15460812292133 4.951131610352093 11.57329816021553 C 0.0 **** -0.24
31922 H 81.3481746042187 5.5501275213947565 11.998148055468008 H 0.0 **** 0.06
31923 H 82.46089587758306 5.3809816899455996 10.619335781795286 H 0.0 **** 0.06
31924 H 81.80526495194563 3.930116143723353 11.417464035799043 H 0.0 **** 0.06
31925 H 83.00174149294853 4.945027946048583 12.258930167455475 H 0.0 **** 0.06
31926 C 17.40289270949483 21.65853762970552 77.07939332706458 C 0.0 **** -0.24
31927 H 18.16151948924498 22.352054821709316 77.44349061621173 H 0.0 **** 0.06
31928 H 17.042964211270196 21.992948592198758 76.10625650770169 H 0.0 **** 0.06
31929 H 16.571079236165865 21.62930018828275 77.78356377266994 H 0.0 **** 0.06
31930 H 17.83537630888798 20.662446820991114 76.9856196485333 H 0.0 **** 0.06
31931 C 86.20742784855932 107.38815142100395 20.821521190202837 C 0.0 **** -0.24
31932 H 85.54810991391392 107.57936069923882 19.97406711036875 H 0.0 **** 0.06
31933 H 85.62402805816848 106.98629903981733 21.6507533014194 H 0.0 **** 0.06
31934 H 86.68302827099353 108.31907305474665 21.128077133039042 H 0.0 **** 0.06
31935 H 86.97163004915487 106.66680716101847 20.531097434926956 H 0.0 **** 0.06
31936 C 23.27039885326755 18.784255742788616 128.5699162091418 C 0.0 **** -0.24
31937 H 22.438423367286575 18.180185138321576 128.9320114597486 H 0.0 **** 0.06
31938 H 22.9565235404538 19.34062255601708 127.68545600568075 H 0.0 **** 0.06
31939 H 24.10623043936465 18.13383885269495 128.31182531885977 H 0.0 **** 0.06
31940 H 23.57883318681266 19.482075491207837 129.34747408525024 H 0.0 **** 0.06
31941 C 96.08264638152272 104.53124798438057 10.817688779817672 C 0.0 **** -0.24
31942 H 96.19376810428751 104.66715787641374 11.893794710461975 H 0.0 **** 0.06
31943 H 95.4484841867116 105.3221408354791 10.416457787035938 H 0.0 **** 0.06
31944 H 95.62508509307068 103.56167721028737 10.619894249653612 H 0.0 **** 0.06
31945 H 97.06261713304467 104.5742310614612 10.344290269201679 H 0.0 **** 0.06
31946 C 74.47162097459679 76.6125083948243 124.55638134564057 C 0.0 **** -0.24
31947 H 74.90400599052506 75.64988530753484 124.28391585306855 H 0.0 **** 0.06
31948 H 73.57935278219983 76.45152648115268 125.16152824912652 H 0.0 **** 0.06
31949 H 74.20412850235473 77.15894794722199 123.65231108933554 H 0.0 **** 0.06
31950 H 75.19961424895237 77.18890794352819 125.1275913281884 H 0.0 **** 0.06
31951 C 10.728309171917743 85.42404099137754 93.92799103598361 C 0.0 **** -0.24
31952 H 10.006850478222816 84.77337373976417 94.42233904993878 H 0.0 **** 0.06
31953 H 10.458044862737694 86.46569840101597 94.10174236360587 H 0.0 **** 0.06
31954 H 10.72517713472871 85.22101747860114 92.85653026777072 H 0.0 **** 0.06
31955 H 11.723344926146808 85.23411476827724 94.33099522204037 H 0.0 **** 0.06
31956 C 89.2734049975797 58.4819634585876 111.71361013478204 C 0.0 **** -0.24
31957 H 88.44441522964678 58.6253586892953 112.40743021375738 H 0.0 **** 0.06
31958 H 90.14783163576382 58.1273829682339 112.25964605158325 H 0.0 **** 0.06
31959 H 89.50698102396167 59.42873417693215 111.22625406803584 H 0.0 **** 0.06
31960 H 88.99225881532692 57.74553532943004 110.96025036003485 H 0.0 **** 0.06
31961 C 84.15615105348678 126.85529927386213 109.67352345723367 C 0.0 **** -0.24
31962 H 83.52901036445445 126.25689453543586 110.33431903197284 H 0.0 **** 0.06
31963 H 84.27160207097666 127.85579734127109 110.09055362039597 H 0.0 **** 0.06
31964 H 83.68862214029951 126.92152510745105 108.69084784802602 H 0.0 **** 0.06
31965 H 85.13501452881542 126.38604730369741 109.5783114960502 H 0.0 **** 0.06
31966 C 124.65372754621492 48.25659992633049 124.88009610553281 C 0.0 **** -0.24
31967 H 124.06423610787884 48.12065952831556 123.97273367066424 H 0.0 **** 0.06
31968 H 123.98702624254771 48.336452215058536 125.73855544498377 H 0.0 **** 0.06
31969 H 125.24696012061095 49.16731721522221 124.79366902012165 H 0.0 **** 0.06
31970 H 125.31709500150437 47.402465000065106 125.01249535921761 H 0.0 **** 0.06
31971 C 59.258622068299786 65.96254722824833 65.43093558924993 C 0.0 **** -0.24
31972 H 59.88569144576455 65.88419933584257 64.54220270773547 H 0.0 **** 0.06
31973 H 58.291177514603234 66.38328117924837 65.15695302824747 H 0.0 **** 0.06
31974 H 59.74367869554226 66.60912022121946 66.16129976426406 H 0.0 **** 0.06
31975 H 59.1142979990758 64.97126415246433 65.86142360872006 H 0.0 **** 0.06
31976 C 100.3960229723645 69.2796799851288 3.1967140570558286 C 0.0 **** -0.24
31977 H 101.3660702208511 68.93333120880904 3.554228207250862 H 0.0 **** 0.06
31978 H 100.20457935058135 70.28225609741521 3.5790659143893357 H 0.0 **** 0.06
31979 H 99.61755598345252 68.602066951524 3.5472182497457823 H 0.0 **** 0.06
31980 H 100.39744073663664 69.29947378563887 2.106567413325781 H 0.0 **** 0.06
31981 C 31.492659270185754 41.56324370248015 30.201993748951907 C 0.0 **** -0.24
31982 H 30.563511561174153 41.145154837715296 30.588335132784664 H 0.0 **** 0.06
31983 H 31.49108668223738 42.644210315354144 30.34379010350483 H 0.0 **** 0.06
31984 H 31.579322590690197 41.33582068253216 29.13930624417469 H 0.0 **** 0.06
31985 H 32.336716246641345 41.12778897431909 30.736543515343385 H 0.0 **** 0.06
31986 C 14.905697859659242 66.01486127313036 104.9148806503326 C 0.0 **** -0.24
31987 H 14.973544977907451 65.66933415525729 103.88353433377728 H 0.0 **** 0.06
31988 H 15.869250753472727 65.87583986903286 105.40767927051485 H 0.0 **** 0.06
31989 H 14.142582306961614 65.44139354896373 105.44009663831616 H 0.0 **** 0.06
31990 H 14.640309244194142 67.07168026410618 104.92712548999427 H 0.0 **** 0.06
31991 C 122.297907253728 92.56865250164373 31.180293716379005 C 0.0 **** -0.24
31992 H 122.99920694114144 91.78755988326182 31.475303186447057 H 0.0 **** 0.06
31993 H 122.68742837652178 93.09636354184974 30.308762353760613 H 0.0 **** 0.06
31994 H 122.17067733533713 93.27183362156077 32.00346644380153 H 0.0 **** 0.06
31995 H 121.33598733984948 92.11849241732375 30.93336357946953 H 0.0 **** 0.06
31996 C 9.360125222668529 75.33678962863877 30.152430854166056 C 0.0 **** -0.24
31997 H 8.42750734858987 75.65119472566556 29.685151769929718 H 0.0 **** 0.06
31998 H 9.298137074833392 75.49524031117852 31.229382737018625 H 0.0 **** 0.06
31999 H 10.18489855776079 75.92303028341178 29.74630482340197 H 0.0 **** 0.06
32000 H 9.53137475810469 74.28032177875303 29.94917320102107 H 0.0 **** 0.06
32001 C 44.63104930269975 25.63760747003863 104.93988536220903 C 0.0 **** -0.24
32002 H 44.913936726104026 25.469998865865193 105.97863435788943 H 0.0 **** 0.06
32003 H 43.9752929758464 24.832967036498417 104.60745510654482 H 0.0 **** 0.06
32004 H 45.5269055962045 25.657160537602266 104.31834315680655 H 0.0 **** 0.06
32005 H 44.10937751318451 26.59096327660251 104.85419560310316 H 0.0 **** 0.06
32006 C 6.927553925642428 93.82642924106861 66.13816768344715 C 0.0 **** -0.24
32007 H 7.483982378441709 94.46277539751992 66.82521595744626 H 0.0 **** 0.06
32008 H 6.686665217557675 94.3896791340092 65.23637852827058 H 0.0 **** 0.06
32009 H 6.006423110614406 93.49341366640104 66.61596585655742 H 0.0 **** 0.06
32010 H 7.534877481535688 92.96004808008288 65.874131110377 H 0.0 **** 0.06
32011 C 26.381885902506852 61.12618543245728 81.10523547533637 C 0.0 **** -0.24
32012 H 27.41198122917043 60.9029748396853 80.83088713524222 H 0.0 **** 0.06
32013 H 25.800965740108225 61.325539806584175 80.20431144342308 H 0.0 **** 0.06
32014 H 26.36053187356731 62.003515355630356 81.7530400575904 H 0.0 **** 0.06
32015 H 25.954055096826607 60.274371003145774 81.63220639479681 H 0.0 **** 0.06
32016 C 46.83789233799229 39.47944416641613 121.14235860278228 C 0.0 **** -0.24
32017 H 46.082873851121974 39.27807837653077 121.90312561282813 H 0.0 **** 0.06
32018 H 47.32962917607529 40.427592108168994 121.3599702629066 H 0.0 **** 0.06
32019 H 46.3616707132735 39.53264655042125 120.16375659272377 H 0.0 **** 0.06
32020 H 47.57698412293246 38.67742936262101 121.14342394568109 H 0.0 **** 0.06
32021 C 104.25028735276142 23.88329394029668 126.14052685105752 C 0.0 **** -0.24
32022 H 104.22537588884278 23.613015083303765 127.1960727827288 H 0.0 **** 0.06
32023 H 103.89852100274376 24.907943412580266 126.01912512383406 H 0.0 **** 0.06
32024 H 103.6050905494526 23.20835844398667 125.57783630625092 H 0.0 **** 0.06
32025 H 105.27183585162895 23.803140215031107 125.76845893759238 H 0.0 **** 0.06
32026 C 54.00338187487202 86.39772754026191 120.10748401650076 C 0.0 **** -0.24
32027 H 53.85995680124364 87.14302749584675 119.32500097743927 H 0.0 **** 0.06
32028 H 53.793523097148835 86.84755267595585 121.07874052278453 H 0.0 **** 0.06
32029 H 55.033259892684754 86.04193127749062 120.08576454140422 H 0.0 **** 0.06
32030 H 53.32557294330519 85.56109223244172 119.93991060586669 H 0.0 **** 0.06
32031 C 57.06587945646197 13.025326983914738 58.331392219823925 C 0.0 **** -0.24
32032 H 57.17570056395351 12.896082378018747 57.255129440517294 H 0.0 **** 0.06
32033 H 57.95244248329391 12.640935924440981 58.83615553741282 H 0.0 **** 0.06
32034 H 56.186512777783264 12.4796561618831 58.67487165068451 H 0.0 **** 0.06
32035 H 56.947796086902144 14.083903029168397 58.56056570186837 H 0.0 **** 0.06
32036 C 75.57441699930038 111.39059009228407 18.214707488044596 C 0.0 **** -0.24
32037 H 76.53200926971569 111.13386251182544 17.765126249547166 H 0.0 **** 0.06
32038 H 75.72503020789377 111.66875174538274 19.258357472833893 H 0.0 **** 0.06
32039 H 74.90596978933206 110.53098544295682 18.16095180379918 H 0.0 **** 0.06
32040 H 75.13186035954085 112.22799449473513 17.675157709627825 H 0.0 **** 0.06
32041 C 114.6772532107189 79.98690164460419 43.63452087933694 C 0.0 **** -0.24
32042 H 113.77738228401091 80.46876806571237 43.25094612454422 H 0.0 **** 0.06
32043 H 114.49355974955569 79.63217662770296 44.64953144106805 H 0.0 **** 0.06
32044 H 115.4974548472236 80.70464738059366 43.643565008103316 H 0.0 **** 0.06
32045 H 114.93827363083051 79.14372825979507 42.995932291869714 H 0.0 **** 0.06
32046 C 32.54335767572837 13.869200025223734 68.64443173121484 C 0.0 **** -0.24
32047 H 32.26456599935531 14.798881961042923 69.14057099977163 H 0.0 **** 0.06
32048 H 33.260216165717424 14.081539609031779 67.85148453510328 H 0.0 **** 0.06
32049 H 31.65425513458419 13.405201277195246 68.21728502198818 H 0.0 **** 0.06
32050 H 32.99288444122524 13.190820687141795 69.37028274075121 H 0.0 **** 0.06
32051 C 30.065361515702705 82.66150695972857 72.32343002388173 C 0.0 **** -0.24
32052 H 29.127835669409194 82.73836861930941 72.87218582073854 H 0.0 **** 0.06
32053 H 29.856286211505875 82.4889509945696 71.26754914006004 H 0.0 **** 0.06
32054 H 30.65198402005933 81.83186768004798 72.71890469210629 H 0.0 **** 0.06
32055 H 30.628281949745315 83.5891510542667 72.43498981118742 H 0.0 **** 0.06
32056 C 53.28152081297654 81.42374803330105 11.14869596912203 C 0.0 **** -0.24
32057 H 53.95407852412515 81.08019756507558 10.363630626940136 H 0.0 **** 0.06
32058 H 52.95577126010576 82.44123792983532 10.929312540774617 H 0.0 **** 0.06
32059 H 53.802557835656955 81.40807325153474 12.106145816630857 H 0.0 **** 0.06
32060 H 52.41309606509199 80.76657202779413 11.19824036075687 H 0.0 **** 0.06
32061 C 50.20006976888749 120.3406904189198 55.70781244068738 C 0.0 **** -0.24
32062 H 49.21069228493596 120.00647476936874 56.01779225057402 H 0.0 **** 0.06
32063 H 50.09995243829657 121.11841208901416 54.95096571205815 H 0.0 **** 0.06
32064 H 50.75483096416522 119.49887510417716 55.29337973762645 H 0.0 **** 0.06
32065 H 50.73583014059136 120.73905700736779 56.57008294286223 H 0.0 **** 0.06
32066 C 106.3779815519392 57.16056011123847 123.72100818480833 C 0.0 **** -0.24
32067 H 107.20309916893038 57.8714707518253 123.68106532020684 H 0.0 **** 0.06
32068 H 106.2041385046671 56.75042583941057 122.72559469811551 H 0.0 **** 0.06
32069 H 105.47776432738806 57.6686814695918 124.0674257512921 H 0.0 **** 0.06
32070 H 106.62658307464145 56.35271953510842 124.40907165677878 H 0.0 **** 0.06
32071 C 101.68984394063344 114.60998746749023 33.79639756009117 C 0.0 **** -0.24
32072 H 102.77432030183796 114.71393318718405 33.82018291318883 H 0.0 **** 0.06
32073 H 101.33943692184957 114.23729035803451 34.758765078624165 H 0.0 **** 0.06
32074 H 101.40988954775223 113.90756502731271 33.010939886253865 H 0.0 **** 0.06
32075 H 101.23572437021461 115.58040548525774 33.594507021966955 H 0.0 **** 0.06
32076 C 85.38656915647795 110.07782923470955 32.10011893394304 C 0.0 **** -0.24
32077 H 84.47515006115668 110.67536893927257 32.12735906894315 H 0.0 **** 0.06
32078 H 85.6894038811945 109.92549056658018 31.064501489547354 H 0.0 **** 0.06
32079 H 85.20235996833071 109.11289516764217 32.57150056503866 H 0.0 **** 0.06
32080 H 86.17914211991314 110.59950646470028 32.637528919332254 H 0.0 **** 0.06
32081 C 26.27288932159265 51.21584337728085 115.79847213570702 C 0.0 **** -0.24
32082 H 25.432493740659197 51.29697071258464 115.10937847737824 H 0.0 **** 0.06
32083 H 27.149372989208423 50.85291923630675 115.2610431123399 H 0.0 **** 0.06
32084 H 26.021162528216045 50.518358141889905 116.59755814714231 H 0.0 **** 0.06
32085 H 26.487733197563635 52.195112876192624 116.2253020582728 H 0.0 **** 0.06
32086 C 39.697261252671694 104.87910028003112 121.38743211981188 C 0.0 **** -0.24
32087 H 39.27178778860713 105.23889960248495 122.32445414221363 H 0.0 **** 0.06
32088 H 40.673828526970226 105.33733774551605 121.23299371506744 H 0.0 **** 0.06
32089 H 39.03491157366852 105.14554193967838 120.56336097426143 H 0.0 **** 0.06
32090 H 39.80633154364597 103.79550679070229 121.4304818724581 H 0.0 **** 0.06
32091 C 23.390257324095387 99.47668876860331 121.4013881501809 C 0.0 **** -0.24
32092 H 22.50162772268061 99.95129978153616 120.98519794219749 H 0.0 **** 0.06
32093 H 23.539369427516135 99.82020631959134 122.42490792393446 H 0.0 **** 0.06
32094 H 24.259452003704155 99.7410769887543 120.79903281077682 H 0.0 **** 0.06
32095 H 23.259657900874117 98.39447939076521 121.39617934381437 H 0.0 **** 0.06
32096 C 10.629787455450707 29.77006659198358 100.26878696701247 C 0.0 **** -0.24
32097 H 11.596282503587219 29.615076678273937 99.78979647834123 H 0.0 **** 0.06
32098 H 10.1769175086344 28.804150814656765 100.49187434461341 H 0.0 **** 0.06
32099 H 9.978889557856192 30.332045953079415 99.598638758483 H 0.0 **** 0.06
32100 H 10.768128353656195 30.329539183093374 101.19358891683223 H 0.0 **** 0.06
32101 C 80.30317861691593 51.6101932267581 130.08738510367317 C 0.0 **** -0.24
32102 H 79.54748943284628 51.4458522065695 129.3183198034614 H 0.0 **** 0.06
32103 H 80.25844239658399 50.80208497794672 130.81837913280006 H 0.0 **** 0.06
32104 H 80.11369387560059 52.561189510999554 130.58484872157084 H 0.0 **** 0.06
32105 H 81.29095974726765 51.631733461353406 129.6273145527713 H 0.0 **** 0.06
32106 C 25.774843703302793 39.97293199478332 65.78303996470923 C 0.0 **** -0.24
32107 H 26.103035039138206 39.12816826526591 65.17768623303017 H 0.0 **** 0.06
32108 H 26.32760435965679 39.98355654281171 66.72205817902251 H 0.0 **** 0.06
32109 H 24.708530970272136 39.879002984259074 65.9889597893454 H 0.0 **** 0.06
32110 H 25.96005917080828 40.901190805394364 65.24206185971057 H 0.0 **** 0.06
32111 C 120.71501037133316 38.82482317835757 81.49651885172663 C 0.0 **** -0.24
32112 H 121.54205279939788 38.983142900050304 80.8042875567653 H 0.0 **** 0.06
32113 H 120.75898745954333 39.56918157849296 82.29090603621363 H 0.0 **** 0.06
32114 H 120.78934889480433 37.82732560775522 81.92805190314539 H 0.0 **** 0.06
32115 H 119.77055351234642 38.91946965387357 80.95997360949676 H 0.0 **** 0.06
32116 C 35.67980300713578 102.88244483259734 44.03933254452312 C 0.0 **** -0.24
32117 H 35.04493308194316 102.0863486081522 44.429680479823105 H 0.0 **** 0.06
32118 H 36.03350802228935 103.50168934022679 44.864418928382406 H 0.0 **** 0.06
32119 H 35.106741887431085 103.49565623304022 43.34420365377804 H 0.0 **** 0.06
32120 H 36.5324382646944 102.44485524139168 43.52042608247649 H 0.0 **** 0.06
32121 C 63.13887069272411 19.24579730675282 74.1087062309538 C 0.0 **** -0.24
32122 H 62.7301106615343 18.938968898886678 73.145097322733 H 0.0 **** 0.06
32123 H 64.06705606485292 19.795086189307604 73.94997335111671 H 0.0 **** 0.06
32124 H 63.33815949912042 18.363157136638804 74.71644858788176 H 0.0 **** 0.06
32125 H 62.4202741795018 19.884848624378627 74.62113465737326 H 0.0 **** 0.06
32126 C 92.85607499026439 95.36227587595945 102.34030582511626 C 0.0 **** -0.24
32127 H 92.91855802656946 95.66575568087237 103.38519401562209 H 0.0 **** 0.06
32128 H 93.83159763197017 95.01003192452592 102.00585969446533 H 0.0 **** 0.06
32129 H 92.54889345466911 96.21394215699564 101.73262452026833 H 0.0 **** 0.06
32130 H 92.12518049547641 94.56036386684391 102.23766655337852 H 0.0 **** 0.06
32131 C 82.90747085230973 33.09513896361972 79.73657990557628 C 0.0 **** -0.24
32132 H 82.68156277189891 32.220892413087256 79.12655864184025 H 0.0 **** 0.06
32133 H 82.12269509165529 33.23228183342667 80.48038787732293 H 0.0 **** 0.06
32134 H 82.96329391360294 33.97825270822125 79.09867280269575 H 0.0 **** 0.06
32135 H 83.86416899153639 32.949350630926574 80.23909553217258 H 0.0 **** 0.06
32136 C 58.61236280451561 89.37613227920386 80.4490815841225 C 0.0 **** -0.24
32137 H 58.986761577828645 89.12043757831461 81.43986016556204 H 0.0 **** 0.06
32138 H 58.784835616765065 90.4360934991344 80.25794575346151 H 0.0 **** 0.06
32139 H 57.5437742812876 89.1669001038928 80.40024582626455 H 0.0 **** 0.06
32140 H 59.13365302965076 88.78165858186652 79.69898427281231 H 0.0 **** 0.06
32141 C 36.24071710214949 44.863119198549754 15.16639825728322 C 0.0 **** -0.24
32142 H 35.45398178998818 45.185582119768384 14.485936970392345 H 0.0 **** 0.06
32143 H 36.129563959393494 45.37867376602421 16.121161592991257 H 0.0 **** 0.06
32144 H 37.21383272559237 45.101239719106474 14.735941385941942 H 0.0 **** 0.06
32145 H 36.16729484711415 43.78701768571756 15.323872638464877 H 0.0 **** 0.06
32146 C 89.84932837566448 43.3364902068779 94.73707168928843 C 0.0 **** -0.24
32147 H 90.92739103178822 43.20209344806801 94.81985958841126 H 0.0 **** 0.06
32148 H 89.35090852243752 42.76494510158267 95.52149660041287 H 0.0 **** 0.06
32149 H 89.51317772681305 42.984738980195516 93.76183363147997 H 0.0 **** 0.06
32150 H 89.60507427449616 44.39365243843059 94.84655905616866 H 0.0 **** 0.06
32151 C 2.7633415870635822 48.25213231914123 125.69052535008647 C 0.0 **** -0.24
32152 H 3.182625276833761 48.30080041093283 126.69563285234923 H 0.0 **** 0.06
32153 H 1.9357091048425978 47.54332644216712 125.67572181323065 H 0.0 **** 0.06
32154 H 3.5340902030484145 47.926187618588635 124.99124060166906 H 0.0 **** 0.06
32155 H 2.4039652044144866 49.23935010338194 125.40026145948991 H 0.0 **** 0.06
32156 C 23.62837146030717 113.18435941624266 116.52228064405146 C 0.0 **** -0.24
32157 H 23.467116739789503 114.0630691079677 117.14674974820146 H 0.0 **** 0.06
32158 H 23.88807442280892 112.33369885291536 117.15286408864779 H 0.0 **** 0.06
32159 H 24.440687604784358 113.3798826653297 115.82217949622509 H 0.0 **** 0.06
32160 H 22.71637496572381 112.96138125302487 115.96768831259473 H 0.0 **** 0.06
32161 C 23.656784555566986 118.63274115515954 48.133907240607286 C 0.0 **** -0.24
32162 H 23.865435467184938 119.51985089434626 48.73277587024059 H 0.0 **** 0.06
32163 H 23.88549797707762 117.73979557033822 48.71566305103252 H 0.0 **** 0.06
32164 H 24.272811479813953 118.64851529312031 47.23506217604083 H 0.0 **** 0.06
32165 H 22.604247323843794 118.623837423354 47.85257556659249 H 0.0 **** 0.06
32166 C 4.62867068937857 61.630862574099666 4.794165347670621 C 0.0 **** -0.24
32167 H 4.773850212804675 60.892782292126554 5.583957065380613 H 0.0 **** 0.06
32168 H 3.897173221212448 62.370435722106606 5.119272195993943 H 0.0 **** 0.06
32169 H 4.2680600208477735 61.133231571226574 3.8944566463562538 H 0.0 **** 0.06
32170 H 5.576023305051802 62.12552563762242 4.581553250245044 H 0.0 **** 0.06
32171 C 23.55319229908129 77.48307522843099 68.86384198073766 C 0.0 **** -0.24
32172 H 22.65672296746422 77.91956730289544 69.30294767891414 H 0.0 **** 0.06
32173 H 23.299804842749694 76.53602250598347 68.38585402005428 H 0.0 **** 0.06
32174 H 24.29310992651193 77.30920195215396 69.64422033744974 H 0.0 **** 0.06
32175 H 23.962623892648452 78.16704158909481 68.12021890749665 H 0.0 **** 0.06
32176 C 40.00920408275181 15.288684043803595 60.4380241198904 C 0.0 **** -0.24
32177 H 39.93189219230928 15.756828801465954 61.41864369522662 H 0.0 **** 0.06
32178 H 40.93244640983394 15.608829865938908 59.954372627506956 H 0.0 **** 0.06
32179 H 39.15667675131192 15.584123077904255 59.82542272689196 H 0.0 **** 0.06
32180 H 40.015800977552146 14.204954429905243 60.55365742993635 H 0.0 **** 0.06
32181 C 59.61870772081117 55.599970062655814 4.327271778673861 C 0.0 **** -0.24
32182 H 60.157897462264884 56.541093666223276 4.223936402059792 H 0.0 **** 0.06
32183 H 60.28352040340752 54.771107385166204 4.083987515485973 H 0.0 **** 0.06
32184 H 58.76605285638222 55.593285289088556 3.647980612867599 H 0.0 **** 0.06
32185 H 59.26566972963619 55.494154048824214 5.352890907139056 H 0.0 **** 0.06
32186 C 84.81557715531471 78.26870931460036 13.253978799820572 C 0.0 **** -0.24
32187 H 84.38573309299454 79.23147282348067 12.979455725378017 H 0.0 **** 0.06
32188 H 85.89126744122763 78.37748823897485 13.394453196471687 H 0.0 **** 0.06
32189 H 84.62407098409892 77.54554561880538 12.460283512896197 H 0.0 **** 0.06
32190 H 84.36091520358246 77.91841339079029 14.180617750034145 H 0.0 **** 0.06
32191 C 43.93900924354739 126.60463468348831 65.16692417160812 C 0.0 **** -0.24
32192 H 43.148227060918984 127.1995737833546 65.62292683364274 H 0.0 **** 0.06
32193 H 43.92567448963248 126.74852234394871 64.08609391222672 H 0.0 **** 0.06
32194 H 43.77749389492867 125.55095012683489 65.39532981851869 H 0.0 **** 0.06
32195 H 44.904794956101526 126.91819877516747 65.56389648575902 H 0.0 **** 0.06
32196 C 87.8480309069084 47.98030523488404 36.775173865207435 C 0.0 **** -0.24
32197 H 86.84408188967134 47.58913070435693 36.9396254386296 H 0.0 **** 0.06
32198 H 88.57792372890594 47.185240945958014 36.93618276290298 H 0.0 **** 0.06
32199 H 88.03838662989878 48.7958136473311 37.47268886977885 H 0.0 **** 0.06
32200 H 87.93113934120714 48.34879197319839 35.75298310447378 H 0.0 **** 0.06
32201 C 48.4624738560418 42.89223379673891 26.9472900978881 C 0.0 **** -0.24
32202 H 49.043523256917226 42.16868608934762 26.37534273358871 H 0.0 **** 0.06
32203 H 47.57921352974277 42.404189035989475 27.35999581443822 H 0.0 **** 0.06
32204 H 48.155752105570755 43.70956941402822 26.293732303545482 H 0.0 **** 0.06
32205 H 49.07361672826083 43.28681903949452 27.760003106712688 H 0.0 **** 0.06
32206 C 89.22901393353244 42.060586301421175 48.15121071668365 C 0.0 **** -0.24
32207 H 89.08686299669709 41.70860751642378 49.17292080730893 H 0.0 **** 0.06
32208 H 88.43121913873426 42.75720006690337 47.8921967444827 H 0.0 **** 0.06
32209 H 89.20638335828883 41.21099887098649 47.467643158079795 H 0.0 **** 0.06
32210 H 90.1915902404096 42.56553875137086 48.07208215686316 H 0.0 **** 0.06
32211 C 127.2751592376487 64.91132559933288 33.767462573822414 C 0.0 **** -0.24
32212 H 128.198137404273 64.6902190686146 34.30322059708476 H 0.0 **** 0.06
32213 H 127.25397782179752 64.3482605296679 32.834027207446496 H 0.0 **** 0.06
32214 H 127.22949397882252 65.97837365668491 33.549463485358345 H 0.0 **** 0.06
32215 H 126.42125329495795 64.62947152354948 34.38309425145928 H 0.0 **** 0.06
32216 C 102.14327679866071 17.335883213748616 101.12994842073795 C 0.0 **** -0.24
32217 H 102.03951322388903 18.143295475003015 100.40629316234305 H 0.0 **** 0.06
32218 H 101.1620244793368 17.07921747060624 101.53048070521476 H 0.0 **** 0.06
32219 H 102.79485498861848 17.657977594003626 101.94249969088952 H 0.0 **** 0.06
32220 H 102.57665243549218 16.463470726302432 100.6414216053316 H 0.0 **** 0.06
32221 C 124.27560205113772 79.64603151607173 18.68738063030588 C 0.0 **** -0.24
32222 H 125.14224642647237 79.98273907676459 19.25629803681386 H 0.0 **** 0.06
32223 H 123.86544819767111 78.74639826786006 19.147974154932626 H 0.0 **** 0.06
32224 H 124.57721522797551 79.42467949025465 17.66351039845665 H 0.0 **** 0.06
32225 H 123.51813924064459 80.42905522134329 18.681869692234272 H 0.0 **** 0.06
32226 C 127.42143984666001 49.596387589279914 7.18862829351437 C 0.0 **** -0.24
32227 H 126.49913847430628 49.26719179267678 6.709594059851611 H 0.0 **** 0.06
32228 H 127.2204831409586 50.48101892570838 7.79393758701444 H 0.0 **** 0.06
32229 H 128.16007179368825 49.8387778767663 6.424390581104319 H 0.0 **** 0.06
32230 H 127.80446507945169 48.799279997228666 7.8252047488801395 H 0.0 **** 0.06
32231 C 54.209821307932515 55.93023205683755 71.25547938782415 C 0.0 **** -0.24
32232 H 54.35966991583231 55.240303276596535 72.08581674826883 H 0.0 **** 0.06
32233 H 55.17727358910801 56.23357301767935 70.85560590502939 H 0.0 **** 0.06
32234 H 53.66913444961338 56.80869505524343 71.60684375343135 H 0.0 **** 0.06
32235 H 53.632165718570946 55.43620757426197 70.47310709903985 H 0.0 **** 0.06
32236 C 6.093279287019925 30.80574077931739 49.52973515411975 C 0.0 **** -0.24
32237 H 5.65003059415335 31.062501279153793 48.56668883663917 H 0.0 **** 0.06
32238 H 5.32762018263216 30.37925288161273 50.1782763739522 H 0.0 **** 0.06
32239 H 6.503452570709072 31.70280276475586 49.99173628663476 H 0.0 **** 0.06
32240 H 6.890031715117942 30.076368136439726 49.37980633256814 H 0.0 **** 0.06
32241 C 110.17313752286762 126.48690318001985 96.52318237017818 C 0.0 **** -0.24
32242 H 109.22149082565983 126.45582936023297 97.05260694751718 H 0.0 **** 0.06
32243 H 110.39151286710361 127.51350674764751 96.22902629734898 H 0.0 **** 0.06
32244 H 110.11433476636005 125.85867951868481 95.6336016747426 H 0.0 **** 0.06
32245 H 110.96391782543766 126.11930319589561 97.17599792765941 H 0.0 **** 0.06
32246 C 101.41821016545003 86.13365325076482 45.60028002103965 C 0.0 **** -0.24
32247 H 101.22993997279042 86.0005862322555 46.66495269056426 H 0.0 **** 0.06
32248 H 102.39855872714338 85.72570396935754 45.35093359682509 H 0.0 **** 0.06
32249 H 101.39400334965228 87.19556128411392 45.357122074603666 H 0.0 **** 0.06
32250 H 100.65127847290904 85.61272218434065 45.02777235401868 H 0.0 **** 0.06
32251 C 71.15409795049463 46.19839575428247 38.27846222727598 C 0.0 **** -0.24
32252 H 70.33118877530593 46.108493926445874 38.98812810944406 H 0.0 **** 0.06
32253 H 72.01318780340105 46.6489987374255 38.774226260237356 H 0.0 **** 0.06
32254 H 70.8448405673881 46.825487640823894 37.44254471894001 H 0.0 **** 0.06
32255 H 71.42370762696612 45.20866691781069 37.910060388264384 H 0.0 **** 0.06
32256 C 5.823620897983517 53.79318463140706 35.524977689553126 C 0.0 **** -0.24
32257 H 5.257609165838119 52.998666244398464 36.011569652189806 H 0.0 **** 0.06
32258 H 5.194348465754615 54.28480871963956 34.78317891450604 H 0.0 **** 0.06
32259 H 6.699064121336136 53.3678913647864 35.03533883363713 H 0.0 **** 0.06
32260 H 6.142055489991549 54.52065731481514 36.27140809947976 H 0.0 **** 0.06
32261 C 92.091196492204 100.87730064319015 18.39464735142576 C 0.0 **** -0.24
32262 H 92.73495168849075 100.4165947645825 19.143283949362456 H 0.0 **** 0.06
32263 H 91.60496923520185 101.75383190349157 18.824413040803535 H 0.0 **** 0.06
32264 H 91.33424354330089 100.16073508460596 18.07626631130063 H 0.0 **** 0.06
32265 H 92.6913224680481 101.17873282612163 17.536050864510088 H 0.0 **** 0.06
32266 C 127.83963145785651 16.563298629569076 103.50601247436894 C 0.0 **** -0.24
32267 H 128.7066445609343 17.03863053360083 103.04617403996203 H 0.0 **** 0.06
32268 H 127.55161721215336 17.119708594534266 104.39839202289046 H 0.0 **** 0.06
32269 H 128.0905640220165 15.538968065474162 103.78026085790307 H 0.0 **** 0.06
32270 H 127.01101887480866 16.55733179362226 102.7977483546745 H 0.0 **** 0.06
32271 C 66.73635546343952 101.52724981049458 96.19400090292822 C 0.0 **** -0.24
32272 H 67.25313220449763 102.28945812703726 95.61072415989577 H 0.0 **** 0.06
32273 H 66.45596556151112 101.94037774043902 97.16388305567891 H 0.0 **** 0.06
32274 H 67.39639224525007 100.67236574921108 96.33922875178047 H 0.0 **** 0.06
32275 H 65.84035868579198 101.20890808263592 95.66156427519576 H 0.0 **** 0.06
32276 C 33.82962936265303 6.147458440381797 11.035733384912746 C 0.0 **** -0.24
32277 H 34.909608189151186 6.105880502959906 11.179359681808819 H 0.0 **** 0.06
32278 H 33.447111055007944 7.090742729659013 11.424675441305894 H 0.0 **** 0.06
32279 H 33.36092638196197 5.31906230677825 11.56751046728344 H 0.0 **** 0.06
32280 H 33.60138607058296 6.072086256660015 9.972083743118219 H 0.0 **** 0.06
32281 C 75.78853516958664 130.85052641419855 101.3754070315106 C 0.0 **** -0.24
32282 H 76.5059489270065 130.3208847969973 102.00244909024465 H 0.0 **** 0.06
32283 H 75.74238116780143 131.89608844310987 101.68103974772397 H 0.0 **** 0.06
32284 H 74.80368342680124 130.39589830430748 101.48609505753457 H 0.0 **** 0.06
32285 H 76.10136397914779 130.7893950225661 100.33322396770342 H 0.0 **** 0.06
32286 C 42.7759065335739 44.69345917339746 72.31382431070162 C 0.0 **** -0.24
32287 H 42.65348684957314 43.61166462929987 72.28249778528524 H 0.0 **** 0.06
32288 H 43.46682121148524 44.95739456711621 73.11533947644415 H 0.0 **** 0.06
32289 H 41.80977925927414 45.16360424177037 72.49826181756879 H 0.0 **** 0.06
32290 H 43.17351049638853 45.04308978052282 71.36150611349154 H 0.0 **** 0.06
32291 C 36.09547225715417 108.55095059446128 112.03080127596498 C 0.0 **** -0.24
32292 H 35.14756649181361 108.1829560412344 112.42243132418818 H 0.0 **** 0.06
32293 H 36.58958615917598 109.15911444186955 112.78934443805302 H 0.0 **** 0.06
32294 H 35.91218713384114 109.15507509443682 111.14285952106457 H 0.0 **** 0.06
32295 H 36.73331870585279 107.70545173979522 111.77055881351328 H 0.0 **** 0.06
32296 C 110.38601141780433 10.36223684912028 111.23115937096622 C 0.0 **** -0.24
32297 H 110.11752433582669 9.55795089757811 111.91694820857964 H 0.0 **** 0.06
32298 H 111.30305112521515 10.840329354813889 111.57473057348136 H 0.0 **** 0.06
32299 H 109.58170651019168 11.097963927185276 111.20252716523623 H 0.0 **** 0.06
32300 H 110.54014779517317 9.952196089578706 110.23345351355431 H 0.0 **** 0.06
32301 C 26.13835335606899 5.048879310768427 122.18501067772212 C 0.0 **** -0.24
32302 H 26.777351130873456 5.862552781725725 122.52692989439817 H 0.0 **** 0.06
32303 H 25.1058798866448 5.395520035918253 122.13025420419521 H 0.0 **** 0.06
32304 H 26.20578750660283 4.215435521742165 122.88384436631154 H 0.0 **** 0.06
32305 H 26.464963510938333 4.721787577590533 121.19739317708195 H 0.0 **** 0.06
32306 C 76.51521639264229 10.820566441967731 105.65529614019559 C 0.0 **** -0.24
32307 H 76.16154975969101 9.807171688591659 105.46658357690444 H 0.0 **** 0.06
32308 H 77.51245541807191 10.781305736883446 106.09310245628919 H 0.0 **** 0.06
32309 H 75.83376055593243 11.319250785602705 106.34503911946962 H 0.0 **** 0.06
32310 H 76.55063665659094 11.373206547457151 104.71686140890912 H 0.0 **** 0.06
32311 C 10.947207786944876 20.953584957965234 56.06110001946317 C 0.0 **** -0.24
32312 H 11.296509318375765 21.413730227049825 56.984975658147846 H 0.0 **** 0.06
32313 H 10.157778418760763 20.236862085143343 56.287882025076684 H 0.0 **** 0.06
32314 H 11.775145239813547 20.439819185976717 55.57414038116947 H 0.0 **** 0.06
32315 H 10.55760780211488 21.725233472578964 55.39635725126308 H 0.0 **** 0.06
32316 C 12.632339321482789 25.839214034636115 31.849191527355174 C 0.0 **** -0.24
32317 H 11.558814777935936 26.024306102236693 31.818427492578508 H 0.0 **** 0.06
32318 H 12.817492867792112 24.766495130525044 31.789527361232473 H 0.0 **** 0.06
32319 H 13.040930069154456 26.227178509963835 32.782069126639755 H 0.0 **** 0.06
32320 H 13.111307014216038 26.338500666603153 31.00718781372305 H 0.0 **** 0.06
32321 C 14.797463924660121 74.6465192060223 18.210402715711425 C 0.0 **** -0.24
32322 H 15.159509217445418 73.72898528142127 17.74622797526326 H 0.0 **** 0.06
32323 H 14.705564849773396 75.42473548501769 17.452355562622245 H 0.0 **** 0.06
32324 H 15.50177548363439 74.96802111857417 18.97785710176231 H 0.0 **** 0.06
32325 H 13.823668079884953 74.46401759951519 18.664491108001698 H 0.0 **** 0.06
32326 C 15.000829110583197 103.98462594785201 98.15047968242324 C 0.0 **** -0.24
32327 H 13.952997931255481 103.85098788446592 98.42163688088745 H 0.0 **** 0.06
32328 H 15.07355536988166 104.2236368234145 97.08972469891827 H 0.0 **** 0.06
32329 H 15.548432330886328 103.06492891786547 98.35503658207269 H 0.0 **** 0.06
32330 H 15.426684470045132 104.79862710189707 98.73699890244654 H 0.0 **** 0.06
32331 C 112.69366520765362 17.59370816436865 91.75039649319912 C 0.0 **** -0.24
32332 H 113.42551646838689 17.84878145309048 90.98317169802266 H 0.0 **** 0.06
32333 H 111.7702542145953 18.143384014953227 91.56832766004025 H 0.0 **** 0.06
32334 H 113.0881592023913 17.859631232505222 92.7312210921293 H 0.0 **** 0.06
32335 H 112.49218348109659 16.52324263721843 91.71794487571563 H 0.0 **** 0.06
32336 C 54.95780958839529 36.57363445626859 13.723693849841766 C 0.0 **** -0.24
32337 H 55.060619889154935 35.88160175318538 12.887312776116545 H 0.0 **** 0.06
32338 H 55.902793304547885 36.62987168205157 14.26509913793754 H 0.0 **** 0.06
32339 H 54.175150170280915 36.21975793912296 14.392971058482487 H 0.0 **** 0.06
32340 H 54.69501646177949 37.5620339268564 13.346765836961453 H 0.0 **** 0.06
32341 C 128.7737361544779 118.47167033556138 13.676470351969442 C 0.0 **** -0.24
32342 H 127.81675962045298 118.32955675664391 13.172610041107873 H 0.0 **** 0.06
32343 H 129.17997104813475 117.50094477979104 13.962799959748736 H 0.0 **** 0.06
32344 H 128.6263817996504 119.08064420588994 14.568089080975028 H 0.0 **** 0.06
32345 H 129.46740199421973 118.97253596823913 13.002996781052559 H 0.0 **** 0.06
32346 C 27.880529150662213 2.8311337681775797 26.452920491957457 C 0.0 **** -0.24
32347 H 27.43555911237607 3.414302609395378 25.64748696592551 H 0.0 **** 0.06
32348 H 28.963998826342205 2.9519276696448173 26.433457496170092 H 0.0 **** 0.06
32349 H 27.628901213862704 1.7784967363539579 26.31978828209168 H 0.0 **** 0.06
32350 H 27.49299956594244 3.1786014738939343 27.410615372147333 H 0.0 **** 0.06
32351 C 48.09553410454311 77.00260270700244 93.64958687475533 C 0.0 **** -0.24
32352 H 48.77689620948274 77.60045440914955 93.0451843340291 H 0.0 **** 0.06
32353 H 47.782432079980154 76.12602097129043 93.08278970709898 H 0.0 **** 0.06
32354 H 47.22116242894925 77.59951058960246 93.9093803201878 H 0.0 **** 0.06
32355 H 48.6024682936731 76.68467125674908 94.5615056636501 H 0.0 **** 0.06
32356 C 7.7100915481230885 113.18100267830344 73.6095992117991 C 0.0 **** -0.24
32357 H 7.597841244468743 112.76643991554646 74.61228717534215 H 0.0 **** 0.06
32358 H 7.0410598688112 114.03328932943579 73.49200443948851 H 0.0 **** 0.06
32359 H 7.4607197280445625 112.41784566919232 72.87171195840888 H 0.0 **** 0.06
32360 H 8.741312062674098 113.5045580006089 73.46386060037534 H 0.0 **** 0.06
32361 C 19.54443983437747 119.74493579946844 65.39791114311751 C 0.0 **** -0.24
32362 H 19.54866660934104 120.75292785681592 64.98242028919327 H 0.0 **** 0.06
32363 H 20.505055783212526 119.26830509596181 65.20336648381152 H 0.0 **** 0.06
32364 H 18.749195732134524 119.16402821945604 64.93262674267433 H 0.0 **** 0.06
32365 H 19.37540704705509 119.79632712616109 66.47375608963247 H 0.0 **** 0.06
32366 C 88.04541024442602 97.17805533331683 38.13185272441038 C 0.0 **** -0.24
32367 H 88.66424286075606 96.47664781724656 38.691214988771634 H 0.0 **** 0.06
32368 H 88.23403198265368 97.05837996822908 37.06498482406417 H 0.0 **** 0.06
32369 H 88.2887538263091 98.19721393991244 38.43277651070642 H 0.0 **** 0.06
32370 H 86.99342423749289 96.97935401498432 38.33887868437094 H 0.0 **** 0.06
32371 C 36.635955877395595 50.80665680205652 33.87310500588839 C 0.0 **** -0.24
32372 H 37.43815921711185 50.10553817047108 34.10313528813731 H 0.0 **** 0.06
32373 H 36.44112657131685 51.433129706768995 34.74350531975827 H 0.0 **** 0.06
32374 H 35.733662663812616 50.25375514771187 33.61365147695375 H 0.0 **** 0.06
32375 H 36.93253078399179 51.43457422955609 33.03247694136124 H 0.0 **** 0.06
32376 C 88.50177022960284 105.42570793943756 104.35096499079486 C 0.0 **** -0.24
32377 H 87.9433740390256 105.2535818694733 103.43065754398421 H 0.0 **** 0.06
32378 H 87.80722301869773 105.63124185871021 105.1647723288566 H 0.0 **** 0.06
32379 H 89.16701370477213 106.27882416020765 104.21607864115356 H 0.0 **** 0.06
32380 H 89.09088964867158 104.53998505069418 104.5889833737595 H 0.0 **** 0.06
32381 C 31.678848591900447 57.0257474236344 5.847144898676525 C 0.0 **** -0.24
32382 H 31.795837219056097 58.10510104683246 5.745331637103426 H 0.0 **** 0.06
32383 H 32.624147791764415 56.58762688822115 6.169454319491027 H 0.0 **** 0.06
32384 H 31.390328357189958 56.599923891135035 4.885574348124777 H 0.0 **** 0.06
32385 H 30.907224419672474 56.812340842598246 6.5858966561797665 H 0.0 **** 0.06
32386 C 128.311203730736 7.871357810807623 58.88976039923699 C 0.0 **** -0.24
32387 H 127.52672333872528 8.496912903866093 59.31620246628671 H 0.0 **** 0.06
32388 H 129.01963122061204 8.49784312931309 58.34666264154458 H 0.0 **** 0.06
32389 H 127.866483982018 7.148188582871839 58.20563970820962 H 0.0 **** 0.06
32390 H 128.83060478722507 7.344027036868603 59.689215341318516 H 0.0 **** 0.06
32391 C 109.89107479276375 121.68916994795748 84.82227259979572 C 0.0 **** -0.24
32392 H 109.39424773374368 121.00018893278818 84.13953657534549 H 0.0 **** 0.06
32393 H 110.9491182750449 121.43355517179887 84.89031390656257 H 0.0 **** 0.06
32394 H 109.4356498416876 121.61467783659452 85.80956966113806 H 0.0 **** 0.06
32395 H 109.78613077742105 122.70878270667956 84.44959026240758 H 0.0 **** 0.06
32396 C 113.68555299363771 13.578816781492463 21.86856631716347 C 0.0 **** -0.24
32397 H 114.63817701621161 13.99729790185009 22.193325446873757 H 0.0 **** 0.06
32398 H 112.95220581526667 14.379523904801204 21.769240957456645 H 0.0 **** 0.06
32399 H 113.3362064780585 12.855662071817363 22.606024647422203 H 0.0 **** 0.06
32400 H 113.81494613541673 13.083056543891587 20.90635808292342 H 0.0 **** 0.06
32401 C 113.46560734336748 58.27020960425335 114.19950975249779 C 0.0 **** -0.24
32402 H 113.80505509445777 57.660832428305156 113.36180385939636 H 0.0 **** 0.06
32403 H 113.91316290514925 59.262207612154754 114.13081844278216 H 0.0 **** 0.06
32404 H 113.76505417341724 57.800540868728774 115.13629218647313 H 0.0 **** 0.06
32405 H 112.37940149019533 58.358177544738425 114.16881807306501 H 0.0 **** 0.06
32406 C 2.1737253657254882 112.04625866570308 3.329414114635455 C 0.0 **** -0.24
32407 H 1.9371384391940296 112.68351613733977 2.4768373975445 H 0.0 **** 0.06
32408 H 1.8978929156794493 112.5562356007397 4.252120689789024 H 0.0 **** 0.06
32409 H 3.242187213831585 111.83182260371517 3.336823481084579 H 0.0 **** 0.06
32410 H 1.6172801271447952 111.11206907104152 3.2494453531718506 H 0.0 **** 0.06
32411 C 50.149374992329456 4.390373894302087 51.18052562363317 C 0.0 **** -0.24
32412 H 49.62577597560801 5.021305777616618 50.4617123350171 H 0.0 **** 0.06
32413 H 50.920091749745154 4.974501899866709 51.68315631145272 H 0.0 **** 0.06
32414 H 50.610111827653725 3.551579772585143 50.659463805775175 H 0.0 **** 0.06
32415 H 49.43953304951299 4.015125532981699 51.91764538953264 H 0.0 **** 0.06
32416 C 48.0321370042806 8.921449217472684 121.10282051048335 C 0.0 **** -0.24
32417 H 48.85156771441474 9.268947855478416 121.73115753588472 H 0.0 **** 0.06
32418 H 48.06599227587991 7.834165133087723 121.03033163399752 H 0.0 **** 0.06
32419 H 48.12790995853766 9.354725833805745 120.10703719768341 H 0.0 **** 0.06
32420 H 47.08254288243458 9.228257111590636 121.54196561568008 H 0.0 **** 0.06
32421 C 13.50102569792751 120.19512265519629 93.25942028559604 C 0.0 **** -0.24
32422 H 14.473378199435082 119.85608361312097 92.9021548271732 H 0.0 **** 0.06
32423 H 13.32160080338408 121.21316387358684 92.91391305343201 H 0.0 **** 0.06
32424 H 13.487306931718361 120.17304057380818 94.34930544947926 H 0.0 **** 0.06
32425 H 12.72322706077081 119.53719913633816 92.87237588632713 H 0.0 **** 0.06
32426 C 119.44476192203564 99.66475605016757 6.70482897359409 C 0.0 **** -0.24
32427 H 118.38259255581636 99.90961600345202 6.7484227798289 H 0.0 **** 0.06
32428 H 119.58652653476076 98.77649644851465 6.088827212293381 H 0.0 **** 0.06
32429 H 119.81521625807477 99.47331999764117 7.71199246643198 H 0.0 **** 0.06
32430 H 119.99199597801726 100.5010664556221 6.269404715925475 H 0.0 **** 0.06
32431 C 43.795513780121524 63.63468937045113 17.914648056993997 C 0.0 **** -0.24
32432 H 43.108494003342 64.36069752240334 17.47936368481271 H 0.0 **** 0.06
32433 H 44.7908928466544 63.78144350403696 17.49579702350755 H 0.0 **** 0.06
32434 H 43.45004441529366 62.62632426068464 17.686737564776337 H 0.0 **** 0.06
32435 H 43.83071586050491 63.771267047980444 18.996054035315794 H 0.0 **** 0.06
32436 C 105.71469209012707 100.36082366356311 107.99738436897496 C 0.0 **** -0.24
32437 H 105.99284621703163 101.19553099988413 108.64116106886217 H 0.0 **** 0.06
32438 H 106.57958355207349 99.71379204497691 107.84724651148474 H 0.0 **** 0.06
32439 H 105.37362885054245 100.74240565886136 107.03482188431786 H 0.0 **** 0.06
32440 H 104.91277595995739 99.79174507503845 108.46770931111007 H 0.0 **** 0.06
32441 C 13.827644344795104 2.5990079630153105 17.17273759238506 C 0.0 **** -0.24
32442 H 13.613581915985932 1.5498482878795699 16.971721029054123 H 0.0 **** 0.06
32443 H 14.905356065224893 2.760650425599266 17.145892792481845 H 0.0 **** 0.06
32444 H 13.444732527951231 2.8640618022824924 18.15887173206721 H 0.0 **** 0.06
32445 H 13.346444879440355 3.219353404194379 16.41676731192925 H 0.0 **** 0.06
32446 C 110.47757754246274 123.35154693869399 91.87371835844527 C 0.0 **** -0.24
32447 H 110.91799183892292 122.80513223344704 91.03968737029444 H 0.0 **** 0.06
32448 H 109.45629747929713 123.63854139992563 91.61999848581135 H 0.0 **** 0.06
32449 H 111.06817490424864 124.24555828647544 92.07397554160897 H 0.0 **** 0.06
32450 H 110.46750464047467 122.71604252188988 92.75919966218545 H 0.0 **** 0.06
32451 C 80.6611702810217 99.63521489492082 10.765060997501827 C 0.0 **** -0.24
32452 H 80.38429158180571 100.31290737967869 11.573415265343492 H 0.0 **** 0.06
32453 H 81.73101647254731 99.72010564394594 10.572265239934449 H 0.0 **** 0.06
32454 H 80.10706148104316 99.89948051673143 9.864048998833553 H 0.0 **** 0.06
32455 H 80.42317448525952 98.61122461218342 11.051555893707057 H 0.0 **** 0.06
32456 C 24.863099486005837 103.20718877101984 51.81545338467376 C 0.0 **** -0.24
32457 H 23.89959308611779 102.9461494406554 51.376722939420034 H 0.0 **** 0.06
32458 H 25.494117672855396 102.3197807284879 51.85925355818293 H 0.0 **** 0.06
32459 H 24.7098133073805 103.59507015670613 52.822395207874564 H 0.0 **** 0.06
32460 H 25.34719544514948 103.96737736000625 51.20324033209428 H 0.0 **** 0.06
32461 C 99.32322034960718 95.6205998502841 13.847033969727022 C 0.0 **** -0.24
32462 H 98.25821244513364 95.39213364565438 13.843465492478913 H 0.0 **** 0.06
32463 H 99.64122620459376 95.8862998855549 12.838456612922414 H 0.0 **** 0.06
32464 H 99.88098415075879 94.74791910621501 14.185931149285125 H 0.0 **** 0.06
32465 H 99.51326223251004 96.45715607422768 14.51993089483733 H 0.0 **** 0.06
32466 C 1.7965420907457883 48.14729806342956 63.273089272056836 C 0.0 **** -0.24
32467 H 1.4146774218025087 47.1727449891394 63.57604489243354 H 0.0 **** 0.06
32468 H 1.073947082384251 48.631700222427924 62.614814569162974 H 0.0 **** 0.06
32469 H 2.740284877526392 48.018734547052304 62.74428555409199 H 0.0 **** 0.06
32470 H 1.9549366563875594 48.76556804313731 64.15657206840646 H 0.0 **** 0.06
32471 C 121.21614920233966 65.4592411560771 114.24235659902686 C 0.0 **** -0.24
32472 H 122.1266980196288 65.07858426943807 114.70582039968767 H 0.0 **** 0.06
32473 H 120.55968947427105 64.62555611152658 113.99454557995674 H 0.0 **** 0.06
32474 H 121.47284429827451 66.00304858170125 113.3332770766722 H 0.0 **** 0.06
32475 H 120.70910402627086 66.1298388840579 114.9359121701572 H 0.0 **** 0.06
32476 C 66.13835589875865 14.077729421333643 48.99317449479503 C 0.0 **** -0.24
32477 H 65.75834215240259 13.484520947123215 49.82544174586275 H 0.0 **** 0.06
32478 H 66.54879856456446 13.412883137758172 48.23143513386668 H 0.0 **** 0.06
32479 H 66.92032721277022 14.746408200022884 49.3514676179405 H 0.0 **** 0.06
32480 H 65.32570712038667 14.664921216121712 48.56476316929212 H 0.0 **** 0.06
32481 C 109.20078680939136 129.73175213284603 48.6492682111526 C 0.0 **** -0.24
32482 H 110.2287571294685 129.7038351264091 48.28847310648374 H 0.0 **** 0.06
32483 H 109.09099537093164 130.5422489806476 49.37063929345423 H 0.0 **** 0.06
32484 H 108.95868128667863 128.78309135832473 49.12807621561109 H 0.0 **** 0.06
32485 H 108.52563711003629 129.8978203938533 47.80950115152012 H 0.0 **** 0.06
32486 C 38.82630912408765 37.962637055992616 36.66809490825318 C 0.0 **** -0.24
32487 H 37.81833270091273 38.30362228241299 36.90264347564539 H 0.0 **** 0.06
32488 H 39.27286481020758 37.51174737342838 37.553933462963954 H 0.0 **** 0.06
32489 H 39.43086701610828 38.81034125531158 36.34548086761126 H 0.0 **** 0.06
32490 H 38.781358392591834 37.223494233135625 35.86733722289463 H 0.0 **** 0.06
32491 C 95.97497150815332 71.85783916260894 71.81820001171769 C 0.0 **** -0.24
32492 H 96.13247448188233 72.88119749938002 72.15782474430586 H 0.0 **** 0.06
32493 H 95.81907678627422 71.85307627229435 70.73846081382203 H 0.0 **** 0.06
32494 H 95.09762320216811 71.44124823481823 72.31350138158945 H 0.0 **** 0.06
32495 H 96.8499176628587 71.25490376415584 72.06178699363329 H 0.0 **** 0.06
32496 C 124.23672882847228 26.923652503229107 31.316872853593765 C 0.0 **** -0.24
32497 H 123.20262629855388 27.26953080604042 31.304039836424494 H 0.0 **** 0.06
32498 H 124.25993540616616 25.85843018123927 31.549620361007243 H 0.0 **** 0.06
32499 H 124.79391154382805 27.473524386347577 32.07506067912644 H 0.0 **** 0.06
32500 H 124.68768031319546 27.092582677206735 30.339809530468926 H 0.0 **** 0.06
32501 C 121.24675357889593 50.91245805594029 83.16005936940309 C 0.0 **** -0.24
32502 H 121.72142430206428 50.02921066323614 83.58605015637289 H 0.0 **** 0.06
32503 H 121.4032850380104 51.764689202724156 83.82248183912242 H 0.0 **** 0.06
32504 H 120.17756969034677 50.73192845432558 83.04655882124905 H 0.0 **** 0.06
32505 H 121.68410636494241 51.1252015882351 82.18473420181334 H 0.0 **** 0.06
32506 C 47.37910659279632 114.36864351581225 0.18658916116208957 C 0.0 **** -0.24
32507 H 46.45702225305729 114.71385495075252 -0.2814632147126872 H 0.0 **** 0.06
32508 H 48.027540584334034 115.2231207223992 0.3840191846185803 H 0.0 **** 0.06
32509 H 47.88696603839513 113.67361852701244 -0.48111320191355844 H 0.0 **** 0.06
32510 H 47.143414041141625 113.86564996983019 1.124811961640603 H 0.0 **** 0.06
32511 C 65.92054340466433 120.53920126460423 72.60696750385871 C 0.0 **** -0.24
32512 H 66.42407486090781 119.8012486381339 71.98219515873804 H 0.0 **** 0.06
32513 H 64.94186901171128 120.76550811895551 72.18363416356091 H 0.0 **** 0.06
32514 H 66.51905366475427 121.44960551769738 72.64771143819368 H 0.0 **** 0.06
32515 H 65.79789689868699 120.13940646727237 73.61369161666178 H 0.0 **** 0.06
32516 C 66.20774738226459 88.95104054407187 38.42352640760404 C 0.0 **** -0.24
32517 H 66.76065471733091 89.13386494908127 39.34525804967243 H 0.0 **** 0.06
32518 H 66.39834654775092 89.76097450179213 37.719793943116386 H 0.0 **** 0.06
32519 H 65.14134935449596 88.90162403288781 38.64299555868232 H 0.0 **** 0.06
32520 H 66.53291395184448 88.00604988858782 37.987509349873164 H 0.0 **** 0.06
32521 C 46.22222376633317 124.32869679586656 85.61554105208558 C 0.0 **** -0.24
32522 H 46.570341481799346 124.13681393907919 86.63000615326047 H 0.0 **** 0.06
32523 H 45.19362547438706 124.68809621918095 85.64534165925443 H 0.0 **** 0.06
32524 H 46.267651593088345 123.40641614283658 85.03615672956244 H 0.0 **** 0.06
32525 H 46.85819640409511 125.08191894663318 85.1493268047077 H 0.0 **** 0.06
32526 C 9.06299199081425 39.30234977987976 77.4525827777534 C 0.0 **** -0.24
32527 H 10.00337474814679 38.75409073559251 77.40302757244419 H 0.0 **** 0.06
32528 H 9.089733643300953 39.995383105911515 78.29353947650341 H 0.0 **** 0.06
32529 H 8.240260895945273 38.599492594844776 77.58663066176669 H 0.0 **** 0.06
32530 H 8.917394059608881 39.85859886996087 76.5267017655735 H 0.0 **** 0.06
32531 C 20.345855253440646 24.936476422088347 103.44894569690338 C 0.0 **** -0.24
32532 H 19.334310836098922 25.31521759796084 103.30317713845686 H 0.0 **** 0.06
32533 H 21.049567238795277 25.558128824234807 102.89409050687985 H 0.0 **** 0.06
32534 H 20.40450829176936 23.90929374118386 103.0876991281398 H 0.0 **** 0.06
32535 H 20.594569630715284 24.963288332922204 104.50993097430194 H 0.0 **** 0.06
32536 C 100.51173640052232 75.91947369149877 5.850346565500754 C 0.0 **** -0.24
32537 H 101.52542654573605 75.53163566317768 5.747126155524409 H 0.0 **** 0.06
32538 H 100.3330265313113 76.19671713720984 6.890055379943085 H 0.0 **** 0.06
32539 H 99.79759723779912 75.15213729682017 5.55144761026099 H 0.0 **** 0.06
32540 H 100.39191057319118 76.79671450181199 5.214876833161899 H 0.0 **** 0.06
32541 C 23.450115731262116 34.18029412364466 39.40500388225101 C 0.0 **** -0.24
32542 H 23.096367658803274 33.70278418333305 38.49168302769735 H 0.0 **** 0.06
32543 H 24.505174726621505 33.94931259750604 39.55063182791011 H 0.0 **** 0.06
32544 H 22.876112740327613 33.811651005031266 40.2541889015902 H 0.0 **** 0.06
32545 H 23.322725103759353 35.26072526980795 39.322053494155824 H 0.0 **** 0.06
32546 C 68.60695647995684 80.76520923830026 74.2579451267151 C 0.0 **** -0.24
32547 H 68.48062673308291 79.87659518627885 73.63922843213479 H 0.0 **** 0.06
32548 H 69.03321042981449 81.56839596485418 73.6569375418393 H 0.0 **** 0.06
32549 H 69.27440724693108 80.53831649411376 75.08886725711457 H 0.0 **** 0.06
32550 H 67.63661989107354 81.07615785537524 74.64615689741433 H 0.0 **** 0.06
32551 C 126.73597545275737 73.55891233546187 52.70660928757117 C 0.0 **** -0.24
32552 H 125.81010306457569 74.01285549075604 53.06119560205046 H 0.0 **** 0.06
32553 H 126.50254059299041 72.76877215276264 51.992263304460906 H 0.0 **** 0.06
32554 H 127.28003552640564 73.13638404547171 53.55140746251783 H 0.0 **** 0.06
32555 H 127.35001106114757 74.31792871338861 52.222239738437054 H 0.0 **** 0.06
32556 C 44.22726924619453 117.31940913297728 44.97240802172726 C 0.0 **** -0.24
32557 H 43.77430435544589 116.4203028807967 45.3907837535092 H 0.0 **** 0.06
32558 H 45.22947856421257 117.08681206726536 44.611694024777364 H 0.0 **** 0.06
32559 H 44.2872026064842 118.08698059147835 45.74380059454421 H 0.0 **** 0.06
32560 H 43.61758380073587 117.68244587504682 44.14523607463195 H 0.0 **** 0.06
32561 C 58.90857760582061 113.44430853834835 117.24652050131323 C 0.0 **** -0.24
32562 H 59.87887480713306 112.9652170550455 117.11956339584891 H 0.0 **** 0.06
32563 H 58.13128643465892 112.6819201322193 117.29895929154503 H 0.0 **** 0.06
32564 H 58.7152470036053 114.10386086444002 116.40097604127132 H 0.0 **** 0.06
32565 H 58.90885024777941 114.02638736599268 118.16881368061404 H 0.0 **** 0.06
32566 C 41.3702861801919 18.7342359994511 78.4761412699934 C 0.0 **** -0.24
32567 H 42.19571271688335 18.588540084597952 77.7796966031452 H 0.0 **** 0.06
32568 H 41.75301214366954 19.146957607408524 79.41008250726631 H 0.0 **** 0.06
32569 H 40.8870962016631 17.777515978944535 78.67249216500684 H 0.0 **** 0.06
32570 H 40.64741798639676 19.424670185600135 78.04255202860182 H 0.0 **** 0.06
32571 C 106.52209804025935 129.07670184631914 66.75559061839867 C 0.0 **** -0.24
32572 H 107.34595962779562 129.14657752597583 66.0453759044732 H 0.0 **** 0.06
32573 H 106.8993250026391 128.726919669955 67.7171064928365 H 0.0 **** 0.06
32574 H 105.77699509220989 128.37453115128494 66.37930551748956 H 0.0 **** 0.06
32575 H 106.06442916595003 130.058623682506 66.8791107492857 H 0.0 **** 0.06
32576 C 62.6259916575639 34.45473879232634 118.07866387419391 C 0.0 **** -0.24
32577 H 63.10570227333639 35.337427194837744 118.50083012618067 H 0.0 **** 0.06
32578 H 63.334589816787485 33.92676044688221 117.43982114320946 H 0.0 **** 0.06
32579 H 61.76106828543024 34.7585626432886 117.48852903469276 H 0.0 **** 0.06
32580 H 62.3025214700763 33.796519431113495 118.88409897186528 H 0.0 **** 0.06
32581 C 1.4557805778375155 11.176084870109953 91.02879421340432 C 0.0 **** -0.24
32582 H 1.4542629518289516 11.963308997142114 91.78286009483702 H 0.0 **** 0.06
32583 H 0.43951142923503994 10.806880770315711 90.88708365926897 H 0.0 **** 0.06
32584 H 2.0965287032892377 10.358215558831503 91.35883529485206 H 0.0 **** 0.06
32585 H 1.8322251829135894 11.576228234488518 90.0871465932351 H 0.0 **** 0.06
32586 C 51.4266299554686 110.18675181156684 41.22108596542731 C 0.0 **** -0.24
32587 H 51.201945417437685 109.20195270447883 41.63162596205217 H 0.0 **** 0.06
32588 H 51.77250297316684 110.84252456714741 42.01982083547901 H 0.0 **** 0.06
32589 H 50.526644365754095 110.60514885844032 40.77078906108537 H 0.0 **** 0.06
32590 H 52.203988140057646 110.0953998540854 40.46204144746744 H 0.0 **** 0.06
32591 C 59.49405857402388 111.98172663918244 50.60958124995666 C 0.0 **** -0.24
32592 H 59.14327010636214 112.00441030293965 51.64169045539607 H 0.0 **** 0.06
32593 H 58.66771351207211 111.70847062825258 49.95195706698746 H 0.0 **** 0.06
32594 H 60.29374491300632 111.24718316814648 50.51360663319696 H 0.0 **** 0.06
32595 H 59.86936573884853 112.96664303617975 50.331687934573836 H 0.0 **** 0.06
32596 C 122.70073806592947 30.138381714428363 94.17418927384011 C 0.0 **** -0.24
32597 H 123.10747586103315 31.113683488161087 94.44423624789559 H 0.0 **** 0.06
32598 H 122.91103767137497 29.93683933405623 93.1232452776593 H 0.0 **** 0.06
32599 H 121.62353398794099 30.136897173087448 94.33649935532577 H 0.0 **** 0.06
32600 H 123.16360437940946 29.36952893549028 94.79272677659876 H 0.0 **** 0.06
32601 C 84.1631182817259 45.98631171745442 118.54374152238151 C 0.0 **** -0.24
32602 H 85.03143440216607 46.57424651378741 118.24483633801282 H 0.0 **** 0.06
32603 H 84.13369966132407 45.90916768278971 119.63087161763553 H 0.0 **** 0.06
32604 H 84.23408145376956 44.98837889446707 118.11038391906777 H 0.0 **** 0.06
32605 H 83.25454613836084 46.47292972594685 118.18861892227449 H 0.0 **** 0.06
32606 C 101.64187707992372 112.44663977753123 87.9904241468443 C 0.0 **** -0.24
32607 H 102.44151698321517 112.97274145808183 88.51168080720842 H 0.0 **** 0.06
32608 H 100.68086032686634 112.88036074198254 88.2676558524616 H 0.0 **** 0.06
32609 H 101.65974133784025 111.39222347892712 88.26937523436526 H 0.0 **** 0.06
32610 H 101.78673131748312 112.54024274062527 86.91447425665113 H 0.0 **** 0.06
32611 C 97.33737929303432 43.967585941260694 110.17140515531203 C 0.0 **** -0.24
32612 H 96.87533113103157 43.1997959203124 110.7913458019846 H 0.0 **** 0.06
32613 H 97.61108149836811 44.82068737292025 110.79370542307093 H 0.0 **** 0.06
32614 H 96.63289599338393 44.28922802945857 109.40475785474214 H 0.0 **** 0.06
32615 H 98.23076337822644 43.562170081767164 109.69733735588741 H 0.0 **** 0.06
32616 C 98.73522843633413 12.572619649733511 69.44285785936518 C 0.0 **** -0.24
32617 H 99.57000512323279 12.178211134166844 70.02305638400145 H 0.0 **** 0.06
32618 H 98.43889226599174 13.54175742251148 69.84630353946324 H 0.0 **** 0.06
32619 H 97.89423196533295 11.881908131169084 69.50046844608795 H 0.0 **** 0.06
32620 H 99.03964115605984 12.690176532074517 68.40335620651621 H 0.0 **** 0.06
32621 C 105.77510384294823 48.23506633319587 8.028456433408167 C 0.0 **** -0.24
32622 H 104.91544702272225 48.594299108276076 7.463000495788606 H 0.0 **** 0.06
32623 H 106.53586801075468 49.01488102475011 8.068995558110942 H 0.0 **** 0.06
32624 H 106.1863177229778 47.35015264410671 7.541068017782379 H 0.0 **** 0.06
32625 H 105.4621710808384 47.978631247060505 9.040186909810473 H 0.0 **** 0.06
32626 C 51.31599991213335 117.67679647686126 105.47697753428054 C 0.0 **** -0.24
32627 H 50.315617210953974 117.32541966689953 105.2206333101303 H 0.0 **** 0.06
32628 H 51.99857768889183 116.82843549729641 105.51929370689388 H 0.0 **** 0.06
32629 H 51.28838720277247 118.17159741080457 106.44767935755792 H 0.0 **** 0.06
32630 H 51.658142201107125 118.38245528918236 104.71898027389423 H 0.0 **** 0.06
32631 C 26.292298582752878 93.63005289006176 60.94494823592731 C 0.0 **** -0.24
32632 H 25.639594136599136 93.98465093765248 61.74253997974422 H 0.0 **** 0.06
32633 H 25.9687825360309 92.63998161542565 60.62368088761967 H 0.0 **** 0.06
32634 H 27.318299788677592 93.57595051861995 61.3114452079369 H 0.0 **** 0.06
32635 H 26.244023779786353 94.3202760474104 60.102686395165364 H 0.0 **** 0.06
32636 C 29.498564053198237 109.19061382068114 90.70350997866439 C 0.0 **** -0.24
32637 H 29.428276663910566 110.24258051289502 90.98234021227832 H 0.0 **** 0.06
32638 H 28.568799226145103 108.87990573008952 90.22517493520178 H 0.0 **** 0.06
32639 H 29.666949764886425 108.58844861299173 91.59635419004596 H 0.0 **** 0.06
32640 H 30.328279989620995 109.05399297149697 90.01045757110171 H 0.0 **** 0.06
32641 C 84.8206459500457 69.08576235229592 56.65641642529914 C 0.0 **** -0.24
32642 H 85.55236663046999 69.35935321751388 57.417276737047416 H 0.0 **** 0.06
32643 H 84.51824243229512 68.04825560649789 56.79883951796546 H 0.0 **** 0.06
32644 H 85.26534235768463 69.20184947006913 55.66763566020194 H 0.0 **** 0.06
32645 H 83.94872084853942 69.73464457090813 56.74118655520243 H 0.0 **** 0.06
32646 C 9.323973290713326 125.79974115713499 45.20294891930206 C 0.0 **** -0.24
32647 H 8.764767576236267 126.26654519788406 46.0145741382446 H 0.0 **** 0.06
32648 H 10.318868728857836 125.52930147647393 45.55666195832568 H 0.0 **** 0.06
32649 H 9.410396009436482 126.49955878347747 44.37246122689757 H 0.0 **** 0.06
32650 H 8.799787862610657 124.90387245006757 44.870244301041936 H 0.0 **** 0.06
32651 C 110.79485905688196 106.43716801131961 61.894118921436075 C 0.0 **** -0.24
32652 H 110.79806639743867 105.75381966157096 61.044672490115104 H 0.0 **** 0.06
32653 H 110.13197528236311 107.27710311493232 61.681556685925315 H 0.0 **** 0.06
32654 H 111.80560030713072 106.80562859983633 62.06851608629667 H 0.0 **** 0.06
32655 H 110.44174681866153 105.91001138256235 62.78113085860667 H 0.0 **** 0.06
32656 C 76.34134285937442 82.04324534993901 76.41574734469953 C 0.0 **** -0.24
32657 H 77.27744628663017 82.2459033721747 75.89595167513073 H 0.0 **** 0.06
32658 H 75.67682125243164 82.90180626338898 76.31565890002804 H 0.0 **** 0.06
32659 H 76.54467286684876 81.86172284994589 77.47192207200425 H 0.0 **** 0.06
32660 H 75.86700173860933 81.16341533217192 75.98026698176517 H 0.0 **** 0.06
32661 C 95.28425757924978 125.84389124854927 128.2574192648664 C 0.0 **** -0.24
32662 H 95.36106751522598 125.56639822097644 127.20550653232286 H 0.0 **** 0.06
32663 H 96.2188261200167 126.30082255590554 128.5818616435552 H 0.0 **** 0.06
32664 H 95.08864554790367 124.95333830014357 128.8543579765799 H 0.0 **** 0.06
32665 H 94.46779017548349 126.55427630476385 128.3869627597526 H 0.0 **** 0.06
32666 C 105.30880099409156 50.032610538541064 50.71216135272623 C 0.0 **** -0.24
32667 H 105.14098318885036 48.96772964267063 50.873503644238426 H 0.0 **** 0.06
32668 H 106.34093418494498 50.2790650691158 50.96414704780496 H 0.0 **** 0.06
32669 H 104.63287092346836 50.60727259503682 51.34617600988531 H 0.0 **** 0.06
32670 H 105.12177398908109 50.27633688457104 49.66659461228883 H 0.0 **** 0.06
32671 C 77.7794396818029 102.3885846500335 16.803346396581247 C 0.0 **** -0.24
32672 H 77.66805414875449 102.52113627380231 15.726945528680716 H 0.0 **** 0.06
32673 H 78.73779245549727 101.91294650392564 17.013203059195746 H 0.0 **** 0.06
32674 H 76.97166541131631 101.75957542812196 17.177553025086468 H 0.0 **** 0.06
32675 H 77.74004755387429 103.36099439421096 17.29475564358333 H 0.0 **** 0.06
32676 C 107.83724154728156 108.53634765953132 118.53340900905005 C 0.0 **** -0.24
32677 H 107.93157408751185 109.16015068734487 119.42317005201056 H 0.0 **** 0.06
32678 H 107.08797972677768 108.96503349580968 117.86745279495449 H 0.0 **** 0.06
32679 H 107.5311755695701 107.53190765356175 118.82539590300291 H 0.0 **** 0.06
32680 H 108.79680690475759 108.48984011294976 118.01950942546091 H 0.0 **** 0.06
32681 C 33.23453957744499 40.99731697033235 98.63247822946394 C 0.0 **** -0.24
32682 H 33.246940760900486 41.923169598863694 99.20618155040843 H 0.0 **** 0.06
32683 H 32.21829678959284 40.60156119307078 98.60290542932847 H 0.0 **** 0.06
32684 H 33.8940159768419 40.26889908271323 99.1030998044539 H 0.0 **** 0.06
32685 H 33.57729364991701 41.195216868259024 97.61623376167628 H 0.0 **** 0.06
32686 C 129.8650546532494 32.54035824405422 24.589665921386512 C 0.0 **** -0.24
32687 H 130.82978649457357 32.33032466160598 24.12764227634119 H 0.0 **** 0.06
32688 H 129.08276132730344 31.997892918588185 24.057582222043862 H 0.0 **** 0.06
32689 H 129.66431646742623 33.610870518614846 24.53974439721199 H 0.0 **** 0.06
32690 H 129.88416585642844 32.222402724221 25.63161191978665 H 0.0 **** 0.06
32691 C 30.817927738886596 114.38253321076287 6.083910912176151 C 0.0 **** -0.24
32692 H 29.867196176045404 114.78415353959083 6.435680897994786 H 0.0 **** 0.06
32693 H 30.94559135318218 114.62550709330982 5.02817123528996 H 0.0 **** 0.06
32694 H 30.82410022529416 113.30032875537795 6.212195214155031 H 0.0 **** 0.06
32695 H 31.632132599437185 114.82205444283512 6.659265539773543 H 0.0 **** 0.06
32696 C 58.45283383828394 94.06569664936647 21.878562129379475 C 0.0 **** -0.24
32697 H 57.62007745543863 94.7698395375707 21.89774954945449 H 0.0 **** 0.06
32698 H 58.82078252945976 93.9113082765305 22.892505626790637 H 0.0 **** 0.06
32699 H 59.25363452108772 94.46709887917483 21.256810543052552 H 0.0 **** 0.06
32700 H 58.11461440483967 93.11560053941479 21.46547443318184 H 0.0 **** 0.06
32701 C 26.874492223650925 67.46946552180275 75.34264557322766 C 0.0 **** -0.24
32702 H 26.615315418596197 68.42179951637229 75.80629724329691 H 0.0 **** 0.06
32703 H 27.013394375204165 67.61242824686543 74.27113808018434 H 0.0 **** 0.06
32704 H 26.071717223052325 66.7519344033697 75.51300071487697 H 0.0 **** 0.06
32705 H 27.799017400338577 67.09203846200907 75.78179200743666 H 0.0 **** 0.06
32706 C 88.49443720526051 26.528137627674653 2.191530103956154 C 0.0 **** -0.24
32707 H 88.77788700540069 27.411045268372476 2.7657799311672875 H 0.0 **** 0.06
32708 H 89.38422918261979 25.94143366302609 1.9651319712990585 H 0.0 **** 0.06
32709 H 88.01747168573357 26.838374666593154 1.2618703073799793 H 0.0 **** 0.06
32710 H 87.798572611618 25.924637603422212 2.7729099839128253 H 0.0 **** 0.06
32711 C 3.8971574401877547 69.39900783820445 73.71776709777606 C 0.0 **** -0.24
32712 H 4.325277643279435 69.2394021996721 72.72795771066113 H 0.0 **** 0.06
32713 H 2.836915534580413 69.14632198916121 73.69975478840654 H 0.0 **** 0.06
32714 H 4.017551767341644 70.44425431513082 74.0016340575759 H 0.0 **** 0.06
32715 H 4.40994391595828 68.76435559834448 74.44072287160958 H 0.0 **** 0.06
32716 C 8.75188456965131 41.22097960092083 66.95191052660817 C 0.0 **** -0.24
32717 H 8.137357709401016 41.393037102601824 67.83575012830835 H 0.0 **** 0.06
32718 H 9.698829767242387 41.75015116271018 67.05943136649773 H 0.0 **** 0.06
32719 H 8.2284980055461 41.58771372845996 66.06958803016397 H 0.0 **** 0.06
32720 H 8.941435401690114 40.15293584896392 66.84460023358957 H 0.0 **** 0.06
32721 C 18.950106289032135 94.34693074382352 118.69064365183674 C 0.0 **** -0.24
32722 H 18.240120002946696 94.31485036107432 119.51754983512522 H 0.0 **** 0.06
32723 H 19.26182935804212 95.37745294710442 118.52077258042011 H 0.0 **** 0.06
32724 H 18.475566539106808 93.95773067624498 117.78988908017544 H 0.0 **** 0.06
32725 H 19.82034812836389 93.7388537211134 118.93540452031954 H 0.0 **** 0.06
32726 C 43.58337264324172 22.266322348412956 100.07139514033271 C 0.0 **** -0.24
32727 H 43.29372247708528 22.346095043216536 99.02318589668415 H 0.0 **** 0.06
32728 H 44.66166365188616 22.40471586306616 100.16138574814633 H 0.0 **** 0.06
32729 H 43.310481656071374 21.281087075514307 100.44936660912433 H 0.0 **** 0.06
32730 H 43.0692937406219 23.033208312926163 100.64986053085823 H 0.0 **** 0.06
32731 C 77.42305992202668 3.129768649984385 75.75153671517569 C 0.0 **** -0.24
32732 H 76.96762341425904 2.804330075230439 74.81594555313279 H 0.0 **** 0.06
32733 H 78.49241870662607 3.2766699957262517 75.60249910140737 H 0.0 **** 0.06
32734 H 77.26278222829325 2.369357792352332 76.51612541566027 H 0.0 **** 0.06
32735 H 76.96679396685022 4.067241773890942 76.06935110484622 H 0.0 **** 0.06
32736 C 129.87161599895066 92.7342145414063 74.3945552383137 C 0.0 **** -0.24
32737 H 130.12776060564647 93.75603722510627 74.11234984469658 H 0.0 **** 0.06
32738 H 129.0637372807848 92.37279034502541 73.75845462801973 H 0.0 **** 0.06
32739 H 129.55067952592609 92.71612161363943 75.43633252990273 H 0.0 **** 0.06
32740 H 130.74576050736295 92.09476777885263 74.2729959159328 H 0.0 **** 0.06
32741 C 61.1831210638602 22.306667874769254 94.40679854803093 C 0.0 **** -0.24
32742 H 60.46190364268651 22.556080322761645 95.18575900268068 H 0.0 **** 0.06
32743 H 60.747202201522526 22.513849541729243 93.42921479156288 H 0.0 **** 0.06
32744 H 61.43985885098121 21.249242775229973 94.47402476300044 H 0.0 **** 0.06
32745 H 62.08251202317359 22.90848945926772 94.53825640289787 H 0.0 **** 0.06
32746 C 59.35790748774542 24.622958033213052 102.06440937874603 C 0.0 **** -0.24
32747 H 60.26397569620735 25.042057372587394 101.62711588493784 H 0.0 **** 0.06
32748 H 59.06569160818509 25.21610046102674 102.93111834139506 H 0.0 **** 0.06
32749 H 59.5458691844197 23.59450772664603 102.37275470129786 H 0.0 **** 0.06
32750 H 58.55705243133758 24.640334452090855 101.3250003412082 H 0.0 **** 0.06
32751 C 102.06515180916395 0.3879911783279226 68.36672877766287 C 0.0 **** -0.24
32752 H 101.1331585416946 -0.17415910951359592 68.43176811188616 H 0.0 **** 0.06
32753 H 102.64643675184323 0.029836547606834074 67.51728571059738 H 0.0 **** 0.06
32754 H 102.6372642861692 0.24977026782019607 69.28318808566472 H 0.0 **** 0.06
32755 H 101.84140047787301 1.4468922707409035 68.2340813718647 H 0.0 **** 0.06
32756 C 31.77372993344663 64.06997743711128 38.02948048699912 C 0.0 **** -0.24
32757 H 32.398138384055585 64.86290169656621 38.44280451328183 H 0.0 **** 0.06
32758 H 30.73294684139819 64.25041395301031 38.29722225333259 H 0.0 **** 0.06
32759 H 32.09231623221866 63.108930448538615 38.43385896711672 H 0.0 **** 0.06
32760 H 31.873365646486896 64.05886356756008 36.94365189526641 H 0.0 **** 0.06
32761 C 122.31648520915505 23.914759612942646 102.35280543725543 C 0.0 **** -0.24
32762 H 121.72302571403858 24.457003539049197 103.0887156248649 H 0.0 **** 0.06
32763 H 122.09826254842453 24.298757969569067 101.35561955799227 H 0.0 **** 0.06
32764 H 122.06733258475032 22.85367333571844 102.39625023551514 H 0.0 **** 0.06
32765 H 123.37582869577737 24.047943986881023 102.57048806508698 H 0.0 **** 0.06
32766 C 38.412554711293836 83.10223566598124 92.12107233561812 C 0.0 **** -0.24
32767 H 37.73334018092356 82.4315463472716 92.64559767092814 H 0.0 **** 0.06
32768 H 39.25796610555565 83.34132243760074 92.76737384643212 H 0.0 **** 0.06
32769 H 37.88659932527753 84.01981281834995 91.85748635659634 H 0.0 **** 0.06
32770 H 38.77358163596048 82.61676057750022 91.21420796534187 H 0.0 **** 0.06
32771 C 67.18242012949116 51.1846222528967 22.173866342713325 C 0.0 **** -0.24
32772 H 67.56311683255899 51.18823268068087 21.152292811301834 H 0.0 **** 0.06
32773 H 66.39967337138455 51.93831723471237 22.272577995669053 H 0.0 **** 0.06
32774 H 67.9950656164192 51.411832059785866 22.864104348817477 H 0.0 **** 0.06
32775 H 66.77222442046093 50.20206171014672 22.405069015605136 H 0.0 **** 0.06
32776 C 95.21492417009952 90.41377272687446 33.38474405746595 C 0.0 **** -0.24
32777 H 94.39525674566954 89.69715071552248 33.434580426549786 H 0.0 **** 0.06
32778 H 94.97533608429227 91.18997640443358 32.657623092605256 H 0.0 **** 0.06
32779 H 96.12755563460983 89.90036784771894 33.08026619226005 H 0.0 **** 0.06
32780 H 95.36257388917113 90.86588501429185 34.36549606916099 H 0.0 **** 0.06
32781 C 82.49478609061156 107.74559179059602 53.59022281756215 C 0.0 **** -0.24
32782 H 81.4251086821989 107.94229354946063 53.53178456196997 H 0.0 **** 0.06
32783 H 83.0176927600456 108.35824818477735 52.85517840973107 H 0.0 **** 0.06
32784 H 82.68230444089396 106.69161276522293 53.3834485674126 H 0.0 **** 0.06
32785 H 82.85572992424679 107.98921472317772 54.58941042760969 H 0.0 **** 0.06
32786 C 8.923089910986914 61.4373961829277 5.266407583760728 C 0.0 **** -0.24
32787 H 8.612565579937183 61.95486801703012 6.17382368601837 H 0.0 **** 0.06
32788 H 9.97477615136459 61.64672129151188 5.071229428879995 H 0.0 **** 0.06
32789 H 8.32063818738516 61.784317038240204 4.427165494691582 H 0.0 **** 0.06
32790 H 8.783183269142231 60.36439280844368 5.395160545496076 H 0.0 **** 0.06
32791 C 82.4648485853615 53.54265874390012 15.784746687005281 C 0.0 **** -0.24
32792 H 82.47738393387704 53.21604579239255 14.74547663154135 H 0.0 **** 0.06
32793 H 81.55054000044277 53.19187658791526 16.26420909891783 H 0.0 **** 0.06
32794 H 82.50053189227498 54.631751021040714 15.823388983872633 H 0.0 **** 0.06
32795 H 83.32909569646677 53.13053633156244 16.305261331873226 H 0.0 **** 0.06
32796 C 64.46452383610053 86.15550124032922 88.16825988380386 C 0.0 **** -0.24
32797 H 64.927782526821 86.82039093728378 87.43875553934559 H 0.0 **** 0.06
32798 H 64.10765013807874 86.739483079803 89.01650680190544 H 0.0 **** 0.06
32799 H 65.19751989160437 85.425571110091 88.51174096754325 H 0.0 **** 0.06
32800 H 63.62512097559032 85.63706872441966 87.70517563891529 H 0.0 **** 0.06
32801 C 57.481501490443776 48.71652869121414 128.38659925414274 C 0.0 **** -0.24
32802 H 57.85129356737022 48.944161949104256 127.38700114980057 H 0.0 **** 0.06
32803 H 58.10350195705203 47.94225318110114 128.83686737541362 H 0.0 **** 0.06
32804 H 56.45255133469803 48.36347977925669 128.32192714031945 H 0.0 **** 0.06
32805 H 57.518451532150635 49.61588146162177 129.0022873439165 H 0.0 **** 0.06
32806 C 127.78635650011437 47.715388128306344 12.524120376335105 C 0.0 **** -0.24
32807 H 127.40079245723882 46.717431117449735 12.3146981673749 H 0.0 **** 0.06
32808 H 127.7476344433526 48.31728640100084 11.616969086262003 H 0.0 **** 0.06
32809 H 128.81914906060507 47.64137105957322 12.866998721834875 H 0.0 **** 0.06
32810 H 127.17991015942434 48.18364110380816 13.299012899555635 H 0.0 **** 0.06
32811 C 126.58343787361099 20.302377957770354 56.35886555346724 C 0.0 **** -0.24
32812 H 127.20362377721744 20.663630518686148 55.539415482013524 H 0.0 **** 0.06
32813 H 125.79546779461978 19.66023810070778 55.96343400138136 H 0.0 **** 0.06
32814 H 126.1352354616845 21.150025362781264 56.87710964352095 H 0.0 **** 0.06
32815 H 127.19916437257228 19.734892237220095 57.056688816108235 H 0.0 **** 0.06
32816 C 54.20075019766284 55.32497664967738 41.58691204088302 C 0.0 **** -0.24
32817 H 54.46918496917411 55.641081843397586 40.579005430239874 H 0.0 **** 0.06
32818 H 54.6687571333936 55.99002319893319 42.312535945405614 H 0.0 **** 0.06
32819 H 54.54698540707207 54.30464456468425 41.75230580570826 H 0.0 **** 0.06
32820 H 53.117092836123504 55.36428522716997 41.70365151835921 H 0.0 **** 0.06
32821 C 80.03637005193087 48.8984220425413 22.660957317664327 C 0.0 **** -0.24
32822 H 80.88535538948375 49.511595757935325 22.963733438632772 H 0.0 **** 0.06
32823 H 79.12076349392677 49.486853176395485 22.730318501017962 H 0.0 **** 0.06
32824 H 79.96249351908546 48.03191312187043 23.317387791708427 H 0.0 **** 0.06
32825 H 80.17659632487656 48.565542414780595 21.63251032363246 H 0.0 **** 0.06
32826 C 124.20106514649095 76.98273637254331 95.97605323241822 C 0.0 **** -0.24
32827 H 124.29685632903971 76.0187647111921 95.47659137938926 H 0.0 **** 0.06
32828 H 123.83965769405799 77.72588783670687 95.26405595650218 H 0.0 **** 0.06
32829 H 125.17365045952113 77.29047629043265 96.35986361812705 H 0.0 **** 0.06
32830 H 123.49511512998693 76.89613791304554 96.80173762953191 H 0.0 **** 0.06
32831 C 25.300783128896114 68.60622744954503 118.08765020833061 C 0.0 **** -0.24
32832 H 25.79985132767122 67.83172010726628 117.50475243613107 H 0.0 **** 0.06
32833 H 25.75951040873001 68.67008877553843 119.07471227450537 H 0.0 **** 0.06
32834 H 24.24479029622853 68.3571409403882 118.19299975492964 H 0.0 **** 0.06
32835 H 25.39874491537526 69.56464184532894 117.57859150951197 H 0.0 **** 0.06
32836 C 66.42130793529401 53.61871799341813 127.46770068281565 C 0.0 **** -0.24
32837 H 66.78239919940623 54.574434778662436 127.08658384113653 H 0.0 **** 0.06
32838 H 65.34500155475413 53.67520766994089 127.63069137684926 H 0.0 **** 0.06
32839 H 66.91983387888894 53.391977992366336 128.40987704582213 H 0.0 **** 0.06
32840 H 66.63933623294884 52.83369316382627 126.74354175425428 H 0.0 **** 0.06
32841 C 120.10527951848648 21.590090252657262 40.151574327406635 C 0.0 **** -0.24
32842 H 120.65871717722601 20.850262442421354 40.72964008641049 H 0.0 **** 0.06
32843 H 120.78081021236 22.386955817183605 39.83967041217077 H 0.0 **** 0.06
32844 H 119.30817815334761 22.009487898141913 40.76634140517392 H 0.0 **** 0.06
32845 H 119.67348768204823 21.11345525396871 39.27162242610898 H 0.0 **** 0.06
32846 C 19.798469569003714 130.35638718802963 101.99575797343547 C 0.0 **** -0.24
32847 H 20.4661438452203 129.86494503136382 102.70451478873312 H 0.0 **** 0.06
32848 H 18.875370247155104 129.78197125678562 101.90958647408715 H 0.0 **** 0.06
32849 H 20.283525106609602 130.41547485665816 101.0216762444733 H 0.0 **** 0.06
32850 H 19.56998469680525 131.3615692506846 102.3502818285859 H 0.0 **** 0.06
32851 C 46.24765591438339 35.526783318014395 3.023568027407265 C 0.0 **** -0.24
32852 H 47.25620658568906 35.486080838662396 2.6129230648000714 H 0.0 **** 0.06
32853 H 45.524559040370605 35.324198213944214 2.233584072221845 H 0.0 **** 0.06
32854 H 46.0643273699377 36.518743208015096 3.438741238413485 H 0.0 **** 0.06
32855 H 46.145564549604416 34.780062574174636 3.810503798438873 H 0.0 **** 0.06
32856 C 126.02853546316797 44.83961919328891 15.433201194450803 C 0.0 **** -0.24
32857 H 126.1209964497374 43.83783646469533 15.013259745219187 H 0.0 **** 0.06
32858 H 124.97480196407489 45.065192655525465 15.603594612835167 H 0.0 **** 0.06
32859 H 126.4478577571524 45.5656590933541 14.736615699201877 H 0.0 **** 0.06
32860 H 126.5686206243567 44.887834774055534 16.37802904572345 H 0.0 **** 0.06
32861 C 65.61579962935872 63.64609857981051 77.33363231243077 C 0.0 **** -0.24
32862 H 65.27860999855733 64.63556538420079 77.64170704412396 H 0.0 **** 0.06
32863 H 64.95862577496968 62.888622616537134 77.75975918448856 H 0.0 **** 0.06
32864 H 66.6345538741966 63.48424810789447 77.68472865175654 H 0.0 **** 0.06
32865 H 65.5916709446986 63.577705912234535 76.24591004279269 H 0.0 **** 0.06
32866 C 30.930728745558923 7.446755945209546 43.24206329745175 C 0.0 **** -0.24
32867 H 31.062902112855824 6.430679148555232 43.61560537994083 H 0.0 **** 0.06
32868 H 31.792038099203097 8.052389810561692 43.523314552219745 H 0.0 **** 0.06
32869 H 30.026178431316765 7.877554993777704 43.67281316442441 H 0.0 **** 0.06
32870 H 30.84065690055482 7.425260877276209 42.15588398035996 H 0.0 **** 0.06
32871 C 36.69045869380096 87.12609827630936 129.4813213654558 C 0.0 **** -0.24
32872 H 37.35564477078751 87.8841340910651 129.06490836159008 H 0.0 **** 0.06
32873 H 37.27464082995155 86.4097595345678 130.05979397588257 H 0.0 **** 0.06
32874 H 36.179542955089346 86.60748034140073 128.67032630174793 H 0.0 **** 0.06
32875 H 35.95598214428833 87.60396001163372 130.12818126166388 H 0.0 **** 0.06
32876 C 72.25848803897898 34.67755601588995 112.51497820578858 C 0.0 **** -0.24
32877 H 71.8953675291564 34.07560018053443 113.34811994051755 H 0.0 **** 0.06
32878 H 72.20456580219317 35.7333728785534 112.77959791581809 H 0.0 **** 0.06
32879 H 71.64079749355477 34.490688573724334 111.63608431896846 H 0.0 **** 0.06
32880 H 73.292194515832 34.40884631366146 112.29608207285183 H 0.0 **** 0.06
32881 C 20.744423279811713 64.63266567011846 93.09707096241088 C 0.0 **** -0.24
32882 H 21.427034536364147 63.872756387851425 93.47767605271166 H 0.0 **** 0.06
32883 H 20.989489188022276 65.5962617550925 93.54545120303493 H 0.0 **** 0.06
32884 H 19.719969175355487 64.36189762819875 93.35328560955415 H 0.0 **** 0.06
32885 H 20.842547999438352 64.69993166326853 92.01364570544185 H 0.0 **** 0.06
32886 C 71.49473897472512 28.533003348567362 36.3995465258875 C 0.0 **** -0.24
32887 H 70.90662554613988 28.91419367311395 37.23521157871667 H 0.0 **** 0.06
32888 H 71.3618251179538 29.18379913072627 35.5355082123354 H 0.0 **** 0.06
32889 H 71.16133389268236 27.52567094729396 36.15147614095224 H 0.0 **** 0.06
32890 H 72.54788558840505 28.508467693559062 36.678698197581724 H 0.0 **** 0.06
32891 C 39.11102258309221 23.331719366499925 38.40721719876524 C 0.0 **** -0.24
32892 H 39.627554930431 22.857665950828817 39.24110873609774 H 0.0 **** 0.06
32893 H 39.15617674490443 24.415202673935227 38.52063031508544 H 0.0 **** 0.06
32894 H 38.069220160444075 23.01018352774406 38.39461042938609 H 0.0 **** 0.06
32895 H 39.59133694672305 23.04467568527346 37.47203193237647 H 0.0 **** 0.06
32896 C 120.7530893556185 116.96450091184342 112.51488490300125 C 0.0 **** -0.24
32897 H 121.51061679734497 116.3864246894973 111.98496078855231 H 0.0 **** 0.06
32898 H 120.94398263994775 118.02904490181204 112.37295036085658 H 0.0 **** 0.06
32899 H 120.79182086758073 116.72640050427653 113.57814572229489 H 0.0 **** 0.06
32900 H 119.7676939857611 116.71670604642885 112.12187463587429 H 0.0 **** 0.06
32901 C 78.51060161451949 117.99866969515278 1.295528068551988 C 0.0 **** -0.24
32902 H 79.34676121148806 117.53304694416701 0.7728626782460424 H 0.0 **** 0.06
32903 H 77.61253217709515 117.3990453043163 1.1518330159468064 H 0.0 **** 0.06
32904 H 78.3471334029756 119.00094539985065 0.8976372433621123 H 0.0 **** 0.06
32905 H 78.73896843257768 118.06329821264058 2.3592118566912177 H 0.0 **** 0.06
32906 C 24.494011552877396 83.96785594819079 4.265981094153972 C 0.0 **** -0.24
32907 H 24.5604577750139 82.88532497882858 4.374958491145691 H 0.0 **** 0.06
32908 H 23.50179135382922 84.2346717000863 3.8996438164264475 H 0.0 **** 0.06
32909 H 25.247076801731282 84.30913076325547 3.5566323607128822 H 0.0 **** 0.06
32910 H 24.663776107504702 84.4418322756454 5.233031732887497 H 0.0 **** 0.06
32911 C 22.624548425234792 103.99110293075896 8.562482263955815 C 0.0 **** -0.24
32912 H 22.18581764208338 103.92705816245237 9.557967074382134 H 0.0 **** 0.06
32913 H 23.09306165283303 104.96698255215713 8.434960540175638 H 0.0 **** 0.06
32914 H 21.84509508953363 103.8614397867114 7.812079438471102 H 0.0 **** 0.06
32915 H 23.37527159111069 103.20959140557312 8.445598011146586 H 0.0 **** 0.06
32916 C 74.04790403064827 62.25974575282066 76.64574650873706 C 0.0 **** -0.24
32917 H 74.35167698276577 63.13478745984591 76.07117843244819 H 0.0 **** 0.06
32918 H 73.3669724020872 61.65142596759365 76.05051577936496 H 0.0 **** 0.06
32919 H 73.5454401713363 62.5803339209848 77.55842212084607 H 0.0 **** 0.06
32920 H 74.92920164952793 61.67163265158547 76.90411451117745 H 0.0 **** 0.06
32921 C 97.78103661500938 129.81938266415116 27.392068965134797 C 0.0 **** -0.24
32922 H 97.04593258300757 129.15042328081282 27.839463502535736 H 0.0 **** 0.06
32923 H 98.77093081570122 129.36618636223952 27.45712380155765 H 0.0 **** 0.06
32924 H 97.77873236123682 130.76915328930053 27.926237366177553 H 0.0 **** 0.06
32925 H 97.52682094127717 129.990393931486 26.345798908005328 H 0.0 **** 0.06
32926 C 11.61148698772223 99.79275103460603 35.71945491430125 C 0.0 **** -0.24
32927 H 10.865123360845473 99.77383660908862 34.9252263219199 H 0.0 **** 0.06
32928 H 11.942555529923311 100.81868045050447 35.88190782269154 H 0.0 **** 0.06
32929 H 12.463833373629086 99.17700135144918 35.4313065712384 H 0.0 **** 0.06
32930 H 11.17453505357031 99.40215639834304 36.637785048481376 H 0.0 **** 0.06
32931 C 32.15565362984182 43.92056876006478 34.406523571620625 C 0.0 **** -0.24
32932 H 32.14575604618386 44.806598384597265 33.771006409186214 H 0.0 **** 0.06
32933 H 32.554784903280336 43.07515230230905 33.843891499733616 H 0.0 **** 0.06
32934 H 31.139563667203277 43.694244865677746 34.729970881408434 H 0.0 **** 0.06
32935 H 32.783074480823984 44.105543550144745 35.27804111820345 H 0.0 **** 0.06
32936 C 39.63290490551921 117.39901112381453 30.51066319322291 C 0.0 **** -0.24
32937 H 40.09496967869342 117.9971656577053 31.296768041844132 H 0.0 **** 0.06
32938 H 39.922164336601355 116.35499699311725 30.631621679145837 H 0.0 **** 0.06
32939 H 39.96595256921054 117.75858190996814 29.537764176301522 H 0.0 **** 0.06
32940 H 38.54804314968524 117.4866676044638 30.57912375506075 H 0.0 **** 0.06
32941 C 36.517677594878094 80.8434923122856 54.69681151346079 C 0.0 **** -0.24
32942 H 37.158679718242524 80.02274872656909 55.02164504207062 H 0.0 **** 0.06
32943 H 37.120594014851925 81.59475542654826 54.185929885100165 H 0.0 **** 0.06
32944 H 36.03601530664654 81.29280982912849 55.56520985126316 H 0.0 **** 0.06
32945 H 35.756814055550564 80.4622379498764 54.01548686546832 H 0.0 **** 0.06
32946 C 73.47102353758885 119.68882054352144 3.939614524725073 C 0.0 **** -0.24
32947 H 74.30393774772463 119.89638146474425 3.2690708944568314 H 0.0 **** 0.06
32948 H 72.67208698518928 119.19693894261789 3.384960277819971 H 0.0 **** 0.06
32949 H 73.1000273071268 120.62396914358132 4.358481250299576 H 0.0 **** 0.06
32950 H 73.80749791833847 119.03810091258092 4.747246537726539 H 0.0 **** 0.06
32951 C 72.77497337248161 109.30256059316321 97.46976899728392 C 0.0 **** -0.24
32952 H 73.74970056375582 108.81904001211649 97.41454079205958 H 0.0 **** 0.06
32953 H 72.04665286772047 108.60665023225548 97.88702613999837 H 0.0 **** 0.06
32954 H 72.45954594215632 109.60078261363077 96.46912084569703 H 0.0 **** 0.06
32955 H 72.84184141153429 110.1842918839933 98.10734258803429 H 0.0 **** 0.06
32956 C 127.69040809149902 41.000471716671655 122.5453865947365 C 0.0 **** -0.24
32957 H 128.58190863564278 40.497871977760866 122.16992319322208 H 0.0 **** 0.06
32958 H 127.80925129039639 42.07835413572002 122.44097306725769 H 0.0 **** 0.06
32959 H 127.54779872353669 40.75003822472689 123.59644943125443 H 0.0 **** 0.06
32960 H 126.82176929416369 40.67339776721167 121.97371820054542 H 0.0 **** 0.06
32961 C 9.537006743906943 63.036260616453916 96.96745942612137 C 0.0 **** -0.24
32962 H 9.840569295770592 63.136902013098364 98.00892929650324 H 0.0 **** 0.06
32963 H 9.276811036320282 61.997508894800404 96.76397103618943 H 0.0 **** 0.06
32964 H 10.36030390457961 63.33812062416803 96.31868605422241 H 0.0 **** 0.06
32965 H 8.673429581658638 63.67303414144331 96.77780610375831 H 0.0 **** 0.06
32966 C 14.138563354439938 81.82496491043818 54.23783299740589 C 0.0 **** -0.24
32967 H 14.401873990696927 81.24470342675536 55.12159797274448 H 0.0 **** 0.06
32968 H 15.047174810070182 82.19522374896171 53.76263398015897 H 0.0 **** 0.06
32969 H 13.51212222101567 82.66788266738298 54.531207641276396 H 0.0 **** 0.06
32970 H 13.592762899965198 81.19378564629962 53.537265361208256 H 0.0 **** 0.06
32971 C 62.556104779499805 0.7219801424860748 56.83529321143868 C 0.0 **** -0.24
32972 H 63.556210295478266 0.6304421818132369 56.41281815790762 H 0.0 **** 0.06
32973 H 62.164869252690266 -0.2699746027250285 57.06238800253746 H 0.0 **** 0.06
32974 H 61.901583395636735 1.214646146775408 56.115823634310516 H 0.0 **** 0.06
32975 H 62.60076655097335 1.3129507116177024 57.75014106053442 H 0.0 **** 0.06
32976 C 60.99575111824896 42.386249117065745 16.64167702579872 C 0.0 **** -0.24
32977 H 62.0154189283422 42.15492643487153 16.334197229432355 H 0.0 **** 0.06
32978 H 60.32630030093026 42.27950189535977 15.78725898602153 H 0.0 **** 0.06
32979 H 60.95145645889963 43.410521926911656 17.013242259426285 H 0.0 **** 0.06
32980 H 60.68959109837439 41.69955368369972 17.431172384120053 H 0.0 **** 0.06
32981 C 108.6282799933472 37.25331501732586 61.26310102875067 C 0.0 **** -0.24
32982 H 108.09980185429751 37.29294341180349 62.21563865073949 H 0.0 **** 0.06
32983 H 109.67712659537179 37.50774427814889 61.41819799572998 H 0.0 **** 0.06
32984 H 108.180125719057 37.96590174796535 60.569592953948586 H 0.0 **** 0.06
32985 H 108.55454451764192 36.24809660681814 60.84816670296516 H 0.0 **** 0.06
32986 C 33.81158977811758 104.21919443201897 39.80514716773507 C 0.0 **** -0.24
32987 H 33.060114802675216 103.90841931110182 39.07862069677546 H 0.0 **** 0.06
32988 H 33.376071104295505 104.20722641906768 40.80423510937911 H 0.0 **** 0.06
32989 H 34.151149622662444 105.22640271340282 39.56755517674486 H 0.0 **** 0.06
32990 H 34.65731210501457 103.5319577718128 39.76833639926488 H 0.0 **** 0.06
32991 C 13.460429213731139 10.989555999924391 34.066397780235164 C 0.0 **** -0.24
32992 H 14.18453914367283 11.42681869272559 33.37848452029783 H 0.0 **** 0.06
32993 H 12.487941870019167 11.458968734537905 33.916342629731815 H 0.0 **** 0.06
32994 H 13.789852378806511 11.154739935692646 35.0921658387649 H 0.0 **** 0.06
32995 H 13.381530935140209 9.91879107324263 33.8781612049425 H 0.0 **** 0.06
32996 C 69.23366976059967 123.80277410029038 20.433949010708602 C 0.0 **** -0.24
32997 H 69.2745098608254 123.23878371704092 21.366419636476962 H 0.0 **** 0.06
32998 H 68.65084554341689 124.71175489346945 20.58577248804957 H 0.0 **** 0.06
32999 H 68.764333486134 123.19512624892855 19.6612919516958 H 0.0 **** 0.06
33000 H 70.2450227526023 124.06774853168605 20.125249870286638 H 0.0 **** 0.06
33001 C 115.2597935655005 113.88551203208034 55.7211458140078 C 0.0 **** -0.24
33002 H 115.50931510574958 114.54369735898142 54.88926450511033 H 0.0 **** 0.06
33003 H 116.01869841201471 113.97910574093014 56.498942193909386 H 0.0 **** 0.06
33004 H 115.22405836620823 112.85398623288005 55.36967172826044 H 0.0 **** 0.06
33005 H 114.28758335241935 114.16473583012741 56.125482011216576 H 0.0 **** 0.06
33006 C 13.332975914053634 85.55480990694764 52.284867062452804 C 0.0 **** -0.24
33007 H 14.354861026570603 85.5385666744404 52.66549616799074 H 0.0 **** 0.06
33008 H 13.342583376933447 85.83294663111542 51.230704284202034 H 0.0 **** 0.06
33009 H 12.74659232281843 86.28059619817918 52.8474503519264 H 0.0 **** 0.06
33010 H 12.889616049218091 84.56469864180622 52.39564721291873 H 0.0 **** 0.06
33011 C 107.62889486323667 14.824809529791366 18.92050871181928 C 0.0 **** -0.24
33012 H 106.93049709553878 14.384029666892502 18.20903689382706 H 0.0 **** 0.06
33013 H 107.30278341605134 15.833858897912709 19.17192698105538 H 0.0 **** 0.06
33014 H 108.62390844262688 14.863007705593763 18.476074917111987 H 0.0 **** 0.06
33015 H 107.65716513538194 14.215628347759377 19.824627408442325 H 0.0 **** 0.06
33016 C 115.56153034955302 19.589359438611957 24.915120163290567 C 0.0 **** -0.24
33017 H 115.31895367678796 18.60334635258296 24.519926320220435 H 0.0 **** 0.06
33018 H 115.45158304776164 19.58287225273122 25.999522752043333 H 0.0 **** 0.06
33019 H 114.88591918328966 20.329589626737203 24.48552344848872 H 0.0 **** 0.06
33020 H 116.59008646538844 19.84202122761137 24.65468996188372 H 0.0 **** 0.06
33021 C 36.48740077970771 109.99608676882616 62.25925895701157 C 0.0 **** -0.24
33022 H 37.217677865472496 110.62912366794927 61.75528264001804 H 0.0 **** 0.06
33023 H 36.64846994627666 110.0416768198553 63.337020908391935 H 0.0 **** 0.06
33024 H 36.60302223106842 108.966895760385 61.91814157845603 H 0.0 **** 0.06
33025 H 35.48123907590855 110.34457327093062 62.02677618491218 H 0.0 **** 0.06
33026 C 18.94157301665524 106.723903537821 40.13732004609588 C 0.0 **** -0.24
33027 H 18.780069712193097 105.93049799756605 40.866898545951784 H 0.0 **** 0.06
33028 H 19.517756429729275 107.52731505797195 40.597904627872595 H 0.0 **** 0.06
33029 H 17.979358453618318 107.11177151960695 39.80359259895059 H 0.0 **** 0.06
33030 H 19.490127807334943 106.3271867225366 39.2839861204169 H 0.0 **** 0.06
33031 C 58.82770445072913 74.94546154851133 79.70562302708873 C 0.0 **** -0.24
33032 H 58.89227769487249 75.16272278604703 80.77177701122145 H 0.0 **** 0.06
33033 H 59.421301936357224 74.0598513812144 79.47862494060757 H 0.0 **** 0.06
33034 H 59.211462586744915 75.7946539756096 79.13832107622403 H 0.0 **** 0.06
33035 H 57.78850223583136 74.76682254038604 79.43292864613875 H 0.0 **** 0.06
33036 C 61.751907656602356 2.364863842179794 43.11232160387018 C 0.0 **** -0.24
33037 H 62.495441502618064 3.062175492721977 42.7249078566547 H 0.0 **** 0.06
33038 H 62.183050185733634 1.7955607123095412 43.93668961500985 H 0.0 **** 0.06
33039 H 61.44712940949273 1.6827016734765827 42.3194058448665 H 0.0 **** 0.06
33040 H 60.88437322670086 2.9196601304220593 43.468299843424305 H 0.0 **** 0.06
33041 C 74.2531951030391 101.62414870497025 114.7414638705674 C 0.0 **** -0.24
33042 H 74.31693508727203 102.24381390593828 115.63496464115482 H 0.0 **** 0.06
33043 H 75.12471870218208 101.80448821851331 114.11134895835008 H 0.0 **** 0.06
33044 H 73.34687311757331 101.87510557252227 114.18945604870905 H 0.0 **** 0.06
33045 H 74.22381866730687 100.5734323374717 115.028762619113 H 0.0 **** 0.06
33046 C 89.12570574789274 80.31989997652617 89.80191698460496 C 0.0 **** -0.24
33047 H 90.07779462805756 79.83185913239875 89.5938127783514 H 0.0 **** 0.06
33048 H 88.85177881509718 80.95393705546343 88.95869667812069 H 0.0 **** 0.06
33049 H 89.21914795147346 80.92906403415647 90.70122349574639 H 0.0 **** 0.06
33050 H 88.3558071441907 79.56330438058058 89.95375809024497 H 0.0 **** 0.06
33051 C 62.51400768627332 65.6737627441533 107.42414922321427 C 0.0 **** -0.24
33052 H 61.47420590146197 65.98533037799689 107.52607742447401 H 0.0 **** 0.06
33053 H 62.89903444416717 65.3685130366901 108.39725841344409 H 0.0 **** 0.06
33054 H 63.1068819812167 66.50456907796087 107.04237266340073 H 0.0 **** 0.06
33055 H 62.57420010623974 64.83521737371063 106.7306386006758 H 0.0 **** 0.06
33056 C 109.16876048350872 1.7224735423216089 37.36190970964793 C 0.0 **** -0.24
33057 H 110.08059870885484 1.3007294227061834 37.78451284176634 H 0.0 **** 0.06
33058 H 109.18961638491922 2.808141189803962 37.464077909612456 H 0.0 **** 0.06
33059 H 108.30438655854378 1.324115096128537 37.89310245241069 H 0.0 **** 0.06
33060 H 109.10018600750169 1.45692458893609 36.30691266140548 H 0.0 **** 0.06
33061 C 92.79651060200712 60.62103034266514 27.553215020131105 C 0.0 **** -0.24
33062 H 92.98829245381177 59.77692723980053 28.21659290119686 H 0.0 **** 0.06
33063 H 92.83910373225797 60.28418721430913 26.516446908541816 H 0.0 **** 0.06
33064 H 93.55066993182197 61.39002865035863 27.717549200161088 H 0.0 **** 0.06
33065 H 91.80817446281372 61.02926607098158 27.761845491494434 H 0.0 **** 0.06
33066 C 53.312561738790436 36.559833574699155 57.478497600947634 C 0.0 **** -0.24
33067 H 54.15709189461123 36.98680105732191 56.935771919614865 H 0.0 **** 0.06
33068 H 53.68270329840618 35.91129234178885 58.27279539651411 H 0.0 **** 0.06
33069 H 52.696091124933616 35.9799208148128 56.79191357686787 H 0.0 **** 0.06
33070 H 52.71668781413214 37.36272436622096 57.91223957181319 H 0.0 **** 0.06
33071 C 71.67957845565104 62.459419997194715 37.77606886909996 C 0.0 **** -0.24
33072 H 72.24363882918695 63.11788830581662 38.43693487124722 H 0.0 **** 0.06
33073 H 70.61490807378927 62.667595616142364 37.880238622083084 H 0.0 **** 0.06
33074 H 71.87515576411994 61.422003024181336 38.04431487033605 H 0.0 **** 0.06
33075 H 71.98524704333386 62.632315655772004 36.74454512517673 H 0.0 **** 0.06
33076 C 112.00145141641386 125.31413005681605 47.82569898238148 C 0.0 **** -0.24
33077 H 112.62863392319862 126.19704617765899 47.70232273914149 H 0.0 **** 0.06
33078 H 111.39438742942514 125.17243698669719 46.931459714364564 H 0.0 **** 0.06
33079 H 111.35058668650554 125.4503175060083 48.68944869099806 H 0.0 **** 0.06
33080 H 112.63254499999182 124.43969758855572 47.98057037868887 H 0.0 **** 0.06
33081 C 28.316072308238574 95.4389613256406 0.9546346239171442 C 0.0 **** -0.24
33082 H 28.566964460231247 96.29552066704618 1.5806080368401183 H 0.0 **** 0.06
33083 H 28.153698262277175 95.7735030915129 -0.07109052154194728 H 0.0 **** 0.06
33084 H 27.40796653417422 94.96782412161517 1.3306241207147593 H 0.0 **** 0.06
33085 H 29.134290768740385 94.71972752646697 0.9767867358978037 H 0.0 **** 0.06
33086 C 30.684558334959547 103.36077169309416 77.00801676674229 C 0.0 **** -0.24
33087 H 30.878719558468987 104.22179495226706 76.36736013927577 H 0.0 **** 0.06
33088 H 31.603545736551254 102.78834497581201 77.1345761824403 H 0.0 **** 0.06
33089 H 29.92290514042054 102.73094882497588 76.54812216306337 H 0.0 **** 0.06
33090 H 30.333452483241373 103.70445291179064 77.98065870112615 H 0.0 **** 0.06
33091 C 21.628717557647548 15.475396040585423 118.14252857413376 C 0.0 **** -0.24
33092 H 20.771273712030847 14.818288020759326 118.00119383478341 H 0.0 **** 0.06
33093 H 22.191675184181065 15.54402287085449 117.21121735484851 H 0.0 **** 0.06
33094 H 22.269616809918602 15.072734472807113 118.92697952114112 H 0.0 **** 0.06
33095 H 21.281501607111267 16.467777722532105 118.43240307058907 H 0.0 **** 0.06
33096 C 22.238754593039914 127.35037396218996 96.01612191122655 C 0.0 **** -0.24
33097 H 22.344648537634527 126.73095940080637 95.12548812336632 H 0.0 **** 0.06
33098 H 21.89234821564321 128.34317789668714 95.7291943377956 H 0.0 **** 0.06
33099 H 23.202533010249 127.4318369468873 96.51865291618088 H 0.0 **** 0.06
33100 H 21.51467870191547 126.89433353986512 96.69211804272715 H 0.0 **** 0.06
33101 C 60.03321884588678 73.18337950884768 38.28737183168158 C 0.0 **** -0.24
33102 H 60.476662757075815 73.7360568282331 37.45813312114137 H 0.0 **** 0.06
33103 H 60.639646989708865 72.30446845764396 38.50328771937495 H 0.0 **** 0.06
33104 H 59.02322487030898 72.87369251912952 38.01835580623111 H 0.0 **** 0.06
33105 H 59.993370231409585 73.82431427370338 39.168783341805465 H 0.0 **** 0.06
33106 C 67.0300611420248 129.28850065844935 57.372098715723155 C 0.0 **** -0.24
33107 H 67.57903976380136 129.61964295020275 58.25352240273865 H 0.0 **** 0.06
33108 H 65.96086835919948 129.42325699277652 57.53901202899911 H 0.0 **** 0.06
33109 H 67.23958724904594 128.23565950997082 57.188126731557375 H 0.0 **** 0.06
33110 H 67.33950253004485 129.87743994879148 56.508411252058465 H 0.0 **** 0.06
33111 C 71.06167904471927 6.880939968007397 82.34046269482366 C 0.0 **** -0.24
33112 H 70.28426789660315 6.512326198491337 81.67173014087393 H 0.0 **** 0.06
33113 H 71.45634736655626 6.053267988326127 82.92971601472925 H 0.0 **** 0.06
33114 H 70.64020904225167 7.632906198953265 83.00761057822587 H 0.0 **** 0.06
33115 H 71.86569940914235 7.325234679662515 81.75419492162541 H 0.0 **** 0.06
33116 C 75.29565318107743 48.311732686134235 82.90431426494708 C 0.0 **** -0.24
33117 H 76.26827053921502 48.6110332957693 82.5117965263128 H 0.0 **** 0.06
33118 H 74.64220934032258 48.02970697330943 82.07854484686477 H 0.0 **** 0.06
33119 H 74.85273939408995 49.143691501204856 83.45184451782171 H 0.0 **** 0.06
33120 H 75.42144408747376 47.46115933574707 83.57504681480839 H 0.0 **** 0.06
33121 C 21.191593869806383 20.40081976163009 78.89296059445206 C 0.0 **** -0.24
33122 H 22.104732209278097 20.004734577348046 79.33572045406396 H 0.0 **** 0.06
33123 H 21.401965927238052 21.363351245176062 78.42703657292395 H 0.0 **** 0.06
33124 H 20.43777373295731 20.528881499727518 79.66949059161038 H 0.0 **** 0.06
33125 H 20.82251508480863 19.704691149472055 78.13959661170458 H 0.0 **** 0.06
33126 C 40.580425420948615 39.632504751996734 14.995645374943194 C 0.0 **** -0.24
33127 H 39.84320050643109 39.224772862842286 15.687577181365754 H 0.0 **** 0.06
33128 H 40.42093027672627 40.70476258577416 14.885350933152864 H 0.0 **** 0.06
33129 H 40.47315951658186 39.14662782450233 14.025281439349584 H 0.0 **** 0.06
33130 H 41.583008609235435 39.45039379630987 15.384152885375755 H 0.0 **** 0.06
33131 C 39.26761256129714 57.4300926134606 114.27291080104706 C 0.0 **** -0.24
33132 H 39.22639588964813 57.08301007123637 113.23964826940758 H 0.0 **** 0.06
33133 H 38.45145039542166 56.98222280985691 114.83887578879015 H 0.0 **** 0.06
33134 H 39.172762901358226 58.515907086170785 114.29442735503605 H 0.0 **** 0.06
33135 H 40.219905449874034 57.139321763344185 114.71553139828475 H 0.0 **** 0.06
33136 C 44.105363576821105 46.3507097940298 107.3483926280739 C 0.0 **** -0.24
33137 H 45.03984754554767 46.439123534696364 107.90317477875507 H 0.0 **** 0.06
33138 H 43.60143925628236 45.426078056639426 107.63166097471877 H 0.0 **** 0.06
33139 H 44.318153043166774 46.33685385405056 106.27946600567194 H 0.0 **** 0.06
33140 H 43.46408209534238 47.20064686994664 107.58119400904656 H 0.0 **** 0.06
33141 C 65.00626470246314 10.385765512794435 119.04714894336317 C 0.0 **** -0.24
33142 H 65.50380900403349 10.236213512572348 120.00590198454701 H 0.0 **** 0.06
33143 H 64.04254194597942 9.876406649745903 119.05486102167016 H 0.0 **** 0.06
33144 H 65.62683306561942 9.97924754953074 118.24919376577024 H 0.0 **** 0.06
33145 H 64.85248527932174 11.45235011283782 118.88071067499924 H 0.0 **** 0.06
33146 C 31.491696294089223 111.98706058867063 28.72935870215869 C 0.0 **** -0.24
33147 H 32.01526379769618 112.536721851077 29.511939731786896 H 0.0 **** 0.06
33148 H 32.21801049383245 111.48844734449835 28.08746697487541 H 0.0 **** 0.06
33149 H 30.896121354316676 112.67968528270683 28.135253530791914 H 0.0 **** 0.06
33150 H 30.837299952722077 111.24286552341465 29.184946989861032 H 0.0 **** 0.06
33151 C 93.38989605593687 107.04266732276952 12.01013471509276 C 0.0 **** -0.24
33152 H 92.45044803504473 107.52593929781347 11.742780913370723 H 0.0 **** 0.06
33153 H 93.20999329156888 105.9857123929338 12.20983903137369 H 0.0 **** 0.06
33154 H 93.80142551326313 107.51618075746407 12.900768719452003 H 0.0 **** 0.06
33155 H 94.09631681866416 107.14162549579063 11.185546640419716 H 0.0 **** 0.06
33156 C 47.71280308193826 26.413540528658473 100.49310530613192 C 0.0 **** -0.24
33157 H 47.76349217810494 25.899860130767223 99.53273893349117 H 0.0 **** 0.06
33158 H 47.06503504850501 27.285654045091235 100.4051334412566 H 0.0 **** 0.06
33159 H 48.71338166217318 26.732381760325893 100.78758675486247 H 0.0 **** 0.06
33160 H 47.31149220373814 25.736676564639595 101.2467591867833 H 0.0 **** 0.06
33161 C 34.62428402096353 99.43922613501034 27.987112241547493 C 0.0 **** -0.24
33162 H 33.920740191176606 99.08322084968943 28.74115660947092 H 0.0 **** 0.06
33163 H 34.118623953665605 100.14035915519091 27.322492121335074 H 0.0 **** 0.06
33164 H 34.99620034047271 98.59280666314424 27.40954076400328 H 0.0 **** 0.06
33165 H 35.45921844126494 99.94016188333384 28.47756956625807 H 0.0 **** 0.06
33166 C 109.3474755874924 96.60975837951224 34.72951364859673 C 0.0 **** -0.24
33167 H 108.60500544736244 97.34489334400456 34.419515056899435 H 0.0 **** 0.06
33168 H 110.31736925983121 96.87594968463861 34.30921978895411 H 0.0 **** 0.06
33169 H 109.05353038232776 95.62335885380946 34.3699309815589 H 0.0 **** 0.06
33170 H 109.41324097843268 96.59622986053239 35.8168444580144 H 0.0 **** 0.06
33171 C 1.5987959909313751 32.79512938634885 101.34543446008091 C 0.0 **** -0.24
33172 H 0.8999206340031627 32.38401595356841 100.6168800984921 H 0.0 **** 0.06
33173 H 2.36287639426806 33.37556305034026 100.82906412100373 H 0.0 **** 0.06
33174 H 2.0697889915118495 31.980618618858493 101.89620056364909 H 0.0 **** 0.06
33175 H 1.0608476795744544 33.439523594426674 102.04111054580585 H 0.0 **** 0.06
33176 C 97.72580540261777 122.66305860423643 29.898234451745907 C 0.0 **** -0.24
33177 H 97.14826171303275 121.89375128938082 29.38513987705508 H 0.0 **** 0.06
33178 H 97.16489679458135 123.022732187864 30.76010442085041 H 0.0 **** 0.06
33179 H 97.9141003679718 123.49115975780023 29.215341397015123 H 0.0 **** 0.06
33180 H 98.67513476746399 122.2428120306206 30.23088601985316 H 0.0 **** 0.06
33181 C 119.63301830785986 11.881827075303011 102.08170279512674 C 0.0 **** -0.24
33182 H 120.64480697352056 11.924170250162092 101.67902277761269 H 0.0 **** 0.06
33183 H 118.92534224524282 11.713574949387112 101.26913504184205 H 0.0 **** 0.06
33184 H 119.399418257587 12.82315290059313 102.57870294879626 H 0.0 **** 0.06
33185 H 119.56258904159036 11.064717789074187 102.80030954014936 H 0.0 **** 0.06
33186 C 126.15548265403822 88.6873095378604 51.103016595655006 C 0.0 **** -0.24
33187 H 126.06119976334656 89.12321272807863 52.09801743037261 H 0.0 **** 0.06
33188 H 125.17134088162902 88.62711467914808 50.6389368737113 H 0.0 **** 0.06
33189 H 126.5809346354784 87.68701592568519 51.18513105138683 H 0.0 **** 0.06
33190 H 126.80891073869265 89.31084016998416 50.49406530574443 H 0.0 **** 0.06
33191 C 78.61831345209944 64.05959435051574 25.40294240260289 C 0.0 **** -0.24
33192 H 78.72708141117215 64.06076187937492 26.488334837923674 H 0.0 **** 0.06
33193 H 77.60289786036779 64.35750095286215 25.14042699888205 H 0.0 **** 0.06
33194 H 78.8153919318155 63.05895724285875 25.01931644487587 H 0.0 **** 0.06
33195 H 79.32752382934783 64.76263589528219 24.96627698518097 H 0.0 **** 0.06
33196 C 60.914079549809315 106.65198363915042 0.7892481537099627 C 0.0 **** -0.24
33197 H 61.998987852256334 106.57772213943556 0.8590452595818192 H 0.0 **** 0.06
33198 H 60.45789157454938 106.02219104234075 1.5540032579567367 H 0.0 **** 0.06
33199 H 60.5902081698879 106.31934363984058 -0.19656236991403375 H 0.0 **** 0.06
33200 H 60.61069938286046 107.68722908493794 0.9426846777113553 H 0.0 **** 0.06
33201 C 18.160941578301987 96.23125486973856 28.401003939698825 C 0.0 **** -0.24
33202 H 17.111837170017907 96.07689832053256 28.653648899208974 H 0.0 **** 0.06
33203 H 18.245268044777788 97.04983859165552 27.68560037756788 H 0.0 **** 0.06
33204 H 18.56661340149634 95.3204305452164 27.95955525157342 H 0.0 **** 0.06
33205 H 18.7198968104924 96.47729720375659 29.30305028383532 H 0.0 **** 0.06
33206 C 14.636752720729543 129.27670324441286 81.1467272649847 C 0.0 **** -0.24
33207 H 13.738192616988243 128.65974366524188 81.16149535610923 H 0.0 **** 0.06
33208 H 14.47733279668454 130.1353798570425 80.49493112885521 H 0.0 **** 0.06
33209 H 15.475135894694795 128.6874991573719 80.7735882386355 H 0.0 **** 0.06
33210 H 14.856962718012245 129.62260319641837 82.15721888453055 H 0.0 **** 0.06
33211 C 36.07021894501142 15.749355363761879 68.62309602137373 C 0.0 **** -0.24
33212 H 36.127394049035644 14.716524581608496 68.27847290823416 H 0.0 **** 0.06
33213 H 35.69501568877459 16.380256188011685 67.81682982492322 H 0.0 **** 0.06
33214 H 37.06343879553967 16.088983521606508 68.91911559597412 H 0.0 **** 0.06
33215 H 35.39532532755646 15.810981814106924 69.47729114053703 H 0.0 **** 0.06
33216 C 35.57382815731782 36.70967810645263 59.14130276346401 C 0.0 **** -0.24
33217 H 34.639287608966015 36.326410189661885 59.550521672757924 H 0.0 **** 0.06
33218 H 35.8736418798743 36.10065412176371 58.28728689618052 H 0.0 **** 0.06
33219 H 36.34904812859281 36.66813509015677 59.907052525075215 H 0.0 **** 0.06
33220 H 35.434143010059756 37.741684106360495 58.82039917471815 H 0.0 **** 0.06
33221 C 29.517109475751084 97.32034163737606 34.92188066303053 C 0.0 **** -0.24
33222 H 30.50918742645308 97.77030266816783 34.96089201924019 H 0.0 **** 0.06
33223 H 29.01986661159387 97.45638571839997 35.88185929185177 H 0.0 **** 0.06
33224 H 29.609016107483313 96.25659169464377 34.70618269731312 H 0.0 **** 0.06
33225 H 28.93180959212421 97.80105237325253 34.13823489796859 H 0.0 **** 0.06
33226 C 61.62341300802055 29.46518952847901 68.92695898476228 C 0.0 **** -0.24
33227 H 62.3359462149817 28.839958455222686 69.46555162959305 H 0.0 **** 0.06
33228 H 60.7880280300333 28.852168428816128 68.5875291940518 H 0.0 **** 0.06
33229 H 62.115948186293565 29.918419007669286 68.06673250229767 H 0.0 **** 0.06
33230 H 61.25426441631687 30.248018286280107 69.58972586443093 H 0.0 **** 0.06
33231 C 72.68811799637575 39.67601953697283 43.99787516772298 C 0.0 **** -0.24
33232 H 72.63434533023172 40.76037115166679 43.89504709853034 H 0.0 **** 0.06
33233 H 71.69615411405556 39.28391924056177 44.22369925538828 H 0.0 **** 0.06
33234 H 73.37205155116777 39.422186219827154 44.80722241155823 H 0.0 **** 0.06
33235 H 73.04824129741644 39.24061715346596 43.066573735684585 H 0.0 **** 0.06
33236 C 69.34921589530961 42.91519895361088 91.36352593001092 C 0.0 **** -0.24
33237 H 68.2997845881612 42.85846039609564 91.07196595791942 H 0.0 **** 0.06
33238 H 69.46800517587421 43.661424278048116 92.14884708641975 H 0.0 **** 0.06
33239 H 69.95074587778137 43.19762357234086 90.49877535503803 H 0.0 **** 0.06
33240 H 69.67667281318207 41.94281113995808 91.73227165824017 H 0.0 **** 0.06
33241 C 73.4505106685645 120.36011368994926 12.536352589828766 C 0.0 **** -0.24
33242 H 73.46727106286536 119.80126548665511 11.601128982341834 H 0.0 **** 0.06
33243 H 74.41573570358109 120.26461285558625 13.033295917949033 H 0.0 **** 0.06
33244 H 72.66734065363724 119.96407626323851 13.182613790999568 H 0.0 **** 0.06
33245 H 73.25165863323694 121.41233023318505 12.326743845571343 H 0.0 **** 0.06
33246 C 1.8104131155807153 127.1941496949562 62.344337907228095 C 0.0 **** -0.24
33247 H 1.158091702568349 127.07476186243372 63.2094961580126 H 0.0 **** 0.06
33248 H 2.0759990246530506 126.2117128068121 61.95160076953991 H 0.0 **** 0.06
33249 H 2.716352236423738 127.72302806408823 62.642711039133786 H 0.0 **** 0.06
33250 H 1.292653593611952 127.76575247010788 61.57499615250839 H 0.0 **** 0.06
33251 C 120.7860918048499 94.62275602517683 102.64683941036678 C 0.0 **** -0.24
33252 H 120.53863681952001 95.50104344644414 102.05141884290691 H 0.0 **** 0.06
33253 H 119.99226074926236 94.43918118458934 103.37131579924545 H 0.0 **** 0.06
33254 H 121.72627311548534 94.79257051824774 103.1710546156635 H 0.0 **** 0.06
33255 H 120.88636876596644 93.75686911157938 101.99170667220878 H 0.0 **** 0.06
33256 C 26.388285267959134 17.169793003439423 64.85200486239088 C 0.0 **** -0.24
33257 H 25.38881030829964 17.30741376911587 65.26561802442001 H 0.0 **** 0.06
33258 H 26.686377411169246 18.071968358158074 64.31788861030705 H 0.0 **** 0.06
33259 H 26.382025871794838 16.325352157136763 64.16341797592487 H 0.0 **** 0.06
33260 H 27.0931872071194 16.97545734712 65.66042268971636 H 0.0 **** 0.06
33261 C 26.31495853207653 92.74743085660867 121.77611426839415 C 0.0 **** -0.24
33262 H 26.46906044324669 93.8043649959483 121.55970199349242 H 0.0 **** 0.06
33263 H 26.884628986661852 92.14436801280118 121.06860717521678 H 0.0 **** 0.06
33264 H 25.254510655257604 92.50979936279447 121.68568139518047 H 0.0 **** 0.06
33265 H 26.65038460795884 92.53304361209351 122.79055149959898 H 0.0 **** 0.06
33266 C 12.38724703447231 85.072602054591 47.91673575407478 C 0.0 **** -0.24
33267 H 11.85285873422539 84.13660481319465 48.07806075241436 H 0.0 **** 0.06
33268 H 12.671817247823892 85.15329190823776 46.867823751692214 H 0.0 **** 0.06
33269 H 13.282548546635574 85.09081981996415 48.53836490166543 H 0.0 **** 0.06
33270 H 11.742224915485266 85.90955807604497 48.18435779656099 H 0.0 **** 0.06
33271 C 19.92728971010851 97.75000766097233 33.984292105024366 C 0.0 **** -0.24
33272 H 19.92898997197687 98.39088711191172 34.86603816477589 H 0.0 **** 0.06
33273 H 20.393500040689325 96.79454031174987 34.22956067599674 H 0.0 **** 0.06
33274 H 20.487695972205614 98.23312509576577 33.18332338781863 H 0.0 **** 0.06
33275 H 18.900826973638523 97.58088123373817 33.659344484440425 H 0.0 **** 0.06
33276 C 126.46502217873517 107.49323212459159 81.81146853341366 C 0.0 **** -0.24
33277 H 126.13779721056086 107.42925582128747 82.84930779475062 H 0.0 **** 0.06
33278 H 126.01022905265157 108.36389015675297 81.3400194697139 H 0.0 **** 0.06
33279 H 126.16215374220172 106.59107345838153 81.27900165288514 H 0.0 **** 0.06
33280 H 127.55085558906106 107.58726312644974 81.7774318252147 H 0.0 **** 0.06
33281 C 79.48000744347101 10.585993643194293 38.21037730231458 C 0.0 **** -0.24
33282 H 79.47156492903846 11.614671284599297 37.853018402193754 H 0.0 **** 0.06
33283 H 79.89758402235032 9.937018693998343 37.43958558414718 H 0.0 **** 0.06
33284 H 78.46150994467945 10.27076388382677 38.43767562713376 H 0.0 **** 0.06
33285 H 80.08980046026764 10.519135332798847 39.111584234385276 H 0.0 **** 0.06
33286 C 67.90684029119832 21.61831513174384 39.595697631527116 C 0.0 **** -0.24
33287 H 67.4825530673876 20.615941959543775 39.53273827613384 H 0.0 **** 0.06
33288 H 68.72308813521579 21.71232031045126 38.87970116969353 H 0.0 **** 0.06
33289 H 68.28569195879719 21.78874350621635 40.60362326091649 H 0.0 **** 0.06
33290 H 67.13637928575179 22.354538891409533 39.36769355803381 H 0.0 **** 0.06
33291 C 34.90391629076787 115.61492343662188 53.81879589894824 C 0.0 **** -0.24
33292 H 35.455695111715414 116.51200833727417 54.099456329389724 H 0.0 **** 0.06
33293 H 35.12475451390014 114.81668113151379 54.52855097027086 H 0.0 **** 0.06
33294 H 35.202453851743044 115.30348114110664 52.81775469269914 H 0.0 **** 0.06
33295 H 33.834960493696684 115.82717630805834 53.83044399724852 H 0.0 **** 0.06
33296 C 95.82627400682837 114.74313097112005 78.40056536460673 C 0.0 **** -0.24
33297 H 95.3516883404581 115.57439965734477 77.88030368084179 H 0.0 **** 0.06
33298 H 95.69251827194782 114.8631602169248 79.4758689866843 H 0.0 **** 0.06
33299 H 96.89110405126985 114.72897488245135 78.16514631559556 H 0.0 **** 0.06
33300 H 95.37146376666543 113.80624616495325 78.07868032085611 H 0.0 **** 0.06
33301 C 8.741877423470427 32.434320175645155 101.92072518642186 C 0.0 **** -0.24
33302 H 9.339728900221417 32.8645488204016 101.11807188618354 H 0.0 **** 0.06
33303 H 9.402104486146925 32.00441184891602 102.67488140539729 H 0.0 **** 0.06
33304 H 8.096780435693702 31.655133253134508 101.51647525462295 H 0.0 **** 0.06
33305 H 8.13070884585089 33.21351183540491 102.37584031429753 H 0.0 **** 0.06
33306 C 10.446805609717785 123.3533177005854 99.05033856260462 C 0.0 **** -0.24
33307 H 9.742022335799732 123.93480460240555 99.64418109687323 H 0.0 **** 0.06
33308 H 10.945713430793631 124.00775384000357 98.33515688814539 H 0.0 **** 0.06
33309 H 9.91120908360864 122.57021862886113 98.51354001233155 H 0.0 **** 0.06
33310 H 11.18897634355423 122.89999350535777 99.70796481216716 H 0.0 **** 0.06
33311 C 28.19930882604652 11.589965462079206 5.6240775095039055 C 0.0 **** -0.24
33312 H 28.582710439296548 11.783583348471893 4.622356102597905 H 0.0 **** 0.06
33313 H 28.895762637433307 10.946246836468745 6.161993791978915 H 0.0 **** 0.06
33314 H 27.229716288785326 11.096405062794915 5.552209874915633 H 0.0 **** 0.06
33315 H 28.087345351489773 12.53267728748834 6.159295261173639 H 0.0 **** 0.06
33316 C 89.65070914488628 99.65932009202922 10.338145060352446 C 0.0 **** -0.24
33317 H 88.62798564581438 99.82775183560514 10.675800025273617 H 0.0 **** 0.06
33318 H 89.85757876572045 98.58905511998861 10.324790729232348 H 0.0 **** 0.06
33319 H 90.34336024957877 100.15502394388074 11.018686489865303 H 0.0 **** 0.06
33320 H 89.77329223512186 100.0656831873855 9.33455258898934 H 0.0 **** 0.06
33321 C 95.49357337146677 82.96578653437274 114.90331016515911 C 0.0 **** -0.24
33322 H 94.72774667553317 83.63627318651908 115.29234172016719 H 0.0 **** 0.06
33323 H 95.35164209853752 82.83703804720557 113.82940052428081 H 0.0 **** 0.06
33324 H 95.41573722075964 81.99844268363478 115.3982210682863 H 0.0 **** 0.06
33325 H 96.47904943606655 83.39246189130898 115.09066156614698 H 0.0 **** 0.06
33326 C 106.44094776167304 68.27374065041013 89.85692641048013 C 0.0 **** -0.24
33327 H 107.24296461500427 69.01237910109856 89.87088086147577 H 0.0 **** 0.06
33328 H 106.77122136228067 67.3698919235114 90.36875576790555 H 0.0 **** 0.06
33329 H 106.1865219412015 68.03547746021059 88.82400015826073 H 0.0 **** 0.06
33330 H 105.56503306829887 68.67964376690341 90.36225356877912 H 0.0 **** 0.06
33331 C 81.94870919271024 93.43458812979354 3.3797381841961567 C 0.0 **** -0.24
33332 H 82.46280244825942 93.4275360584127 4.340424301184413 H 0.0 **** 0.06
33333 H 82.18129740838297 94.35976159064452 2.851093371885895 H 0.0 **** 0.06
33334 H 80.8732674738393 93.36968915868535 3.5418759190147853 H 0.0 **** 0.06
33335 H 82.27897498327349 92.58322095776663 2.785019017617742 H 0.0 **** 0.06
33336 C 88.48662715783844 7.884067427194765 45.65478929061294 C 0.0 **** -0.24
33337 H 87.92125471462495 8.111546716811944 46.5592226574654 H 0.0 **** 0.06
33338 H 89.51926523652624 7.654707642249605 45.92084050416159 H 0.0 **** 0.06
33339 H 88.46589618915411 8.745435224340781 44.98717546955382 H 0.0 **** 0.06
33340 H 88.04106118095594 7.024371840320697 45.154158752888094 H 0.0 **** 0.06
33341 C 94.32119379633215 37.160692145156816 61.7947481733861 C 0.0 **** -0.24
33342 H 94.93697148587204 37.74991453950207 62.47411056953689 H 0.0 **** 0.06
33343 H 93.27827390620908 37.45692107504277 61.89910761980542 H 0.0 **** 0.06
33344 H 94.4251526809483 36.102184788850934 62.03641381647094 H 0.0 **** 0.06
33345 H 94.64806949227837 37.33168234154044 60.76831201427251 H 0.0 **** 0.06
33346 C 31.920270029162616 103.98859754375977 111.15969946911704 C 0.0 **** -0.24
33347 H 32.183231240125046 103.1428227316666 110.5243697595898 H 0.0 **** 0.06
33348 H 31.462182798417274 104.77000464853788 110.55159864345265 H 0.0 **** 0.06
33349 H 32.81842477204439 104.37863587704268 111.63690439202095 H 0.0 **** 0.06
33350 H 31.214330937812285 103.6628971397968 111.92379679635536 H 0.0 **** 0.06
33351 C 84.84769578717905 35.05910231628866 122.41540146313466 C 0.0 **** -0.24
33352 H 85.01759592039569 35.053305734525026 121.33866341556325 H 0.0 **** 0.06
33353 H 85.67610636519964 34.55832511957354 122.91587878580427 H 0.0 **** 0.06
33354 H 83.91791094427461 34.536236556949774 122.63933004405034 H 0.0 **** 0.06
33355 H 84.77900069409412 36.089169351811904 122.76647753327273 H 0.0 **** 0.06
33356 C 34.41603845182419 14.17172333700006 99.9448242165478 C 0.0 **** -0.24
33357 H 34.45809102848796 15.245169227818508 100.12903323776536 H 0.0 **** 0.06
33358 H 33.470342516190726 13.923185203581 99.46283409077574 H 0.0 **** 0.06
33359 H 34.49375670697242 13.637953262839915 100.89182412742863 H 0.0 **** 0.06
33360 H 35.24208947874669 13.882580830109703 99.2956657302552 H 0.0 **** 0.06
33361 C 107.65869379416924 16.716858843633986 48.61178451966228 C 0.0 **** -0.24
33362 H 107.59396799225983 17.692336676903032 48.12918523706141 H 0.0 **** 0.06
33363 H 106.87911068510549 16.636036954977293 49.37012846458623 H 0.0 **** 0.06
33364 H 108.63550321050897 16.608599102237235 49.08272680660592 H 0.0 **** 0.06
33365 H 107.52496722344024 15.93231774067202 47.86711148953975 H 0.0 **** 0.06
33366 C 17.82609235124201 53.942163361811055 18.955751806242517 C 0.0 **** -0.24
33367 H 18.058132681242085 54.11000250282868 17.903912563254664 H 0.0 **** 0.06
33368 H 16.968887399275303 53.2748594337188 19.03680442540235 H 0.0 **** 0.06
33369 H 17.59347582489488 54.89460537208632 19.433009902413943 H 0.0 **** 0.06
33370 H 18.68705910473409 53.490038316014676 19.44892490632361 H 0.0 **** 0.06
33371 C 65.44794600941262 9.592927615347634 42.88908080058201 C 0.0 **** -0.24
33372 H 65.40650175334994 9.326885911163629 43.94527048572775 H 0.0 **** 0.06
33373 H 64.43954084078253 9.5938972293458 42.47486278395661 H 0.0 **** 0.06
33374 H 66.06072400606587 8.866263060563824 42.35548054709585 H 0.0 **** 0.06
33375 H 65.88510268611552 10.586200344695015 42.78261556317483 H 0.0 **** 0.06
33376 C 78.5245322914364 38.357807405848206 108.1047204495622 C 0.0 **** -0.24
33377 H 77.89900749042306 37.46609459190179 108.13118544902602 H 0.0 **** 0.06
33378 H 78.89788418732957 38.50873140937762 107.09087732290828 H 0.0 **** 0.06
33379 H 79.36504234334691 38.23273557657012 108.78700142695666 H 0.0 **** 0.06
33380 H 77.93528395325325 39.223800237356585 108.40754766736217 H 0.0 **** 0.06
33381 C 73.33150500952034 126.22479154860923 19.89539618249011 C 0.0 **** -0.24
33382 H 73.33496031715947 125.95812990319592 18.83852575666971 H 0.0 **** 0.06
33383 H 73.9994661825006 125.55762927186235 20.44044099849968 H 0.0 **** 0.06
33384 H 72.32059952756381 126.12983154041169 20.29022918824836 H 0.0 **** 0.06
33385 H 73.67211653503215 127.2541507616167 20.011201707270693 H 0.0 **** 0.06
33386 C 56.123221130586074 115.44515104316244 3.5234159487387053 C 0.0 **** -0.24
33387 H 57.12950999924166 115.80298423863053 3.738324106971529 H 0.0 **** 0.06
33388 H 55.48799541282071 116.28911182343103 3.251533533030873 H 0.0 **** 0.06
33389 H 55.71607589913677 114.95393335687552 4.406819242306131 H 0.0 **** 0.06
33390 H 56.158918756297254 114.73548859737403 2.6968559921288318 H 0.0 **** 0.06
33391 C 129.99285416215054 110.19259709368703 10.673512785901409 C 0.0 **** -0.24
33392 H 129.2560014682728 110.1943298677498 11.476675017524798 H 0.0 **** 0.06
33393 H 129.94720616704808 111.14029753046634 10.136333439395884 H 0.0 **** 0.06
33394 H 129.77929573248935 109.37322700814221 9.98685643055947 H 0.0 **** 0.06
33395 H 130.9890252622041 110.0616880347709 11.096253170787804 H 0.0 **** 0.06
33396 C 109.93751773141986 33.01126011087629 63.555179876982336 C 0.0 **** -0.24
33397 H 109.90603394254305 33.333451487086066 62.51498139325251 H 0.0 **** 0.06
33398 H 109.30729228743544 32.13014650452109 63.68133156354996 H 0.0 **** 0.06
33399 H 109.57298338495633 33.81377149996486 64.19525609637974 H 0.0 **** 0.06
33400 H 110.96355674293943 32.766277925792224 63.828141594979485 H 0.0 **** 0.06
33401 C 23.500629257490345 103.13924767604851 76.43863819812753 C 0.0 **** -0.24
33402 H 22.980791536508065 103.26268955054948 77.3888420348519 H 0.0 **** 0.06
33403 H 24.56918043307971 103.02801671103018 76.62182800820841 H 0.0 **** 0.06
33404 H 23.328805727821134 104.01670691641797 75.81415881479623 H 0.0 **** 0.06
33405 H 23.12349572804891 102.25215061926482 75.93087297621082 H 0.0 **** 0.06
33406 C 54.407443016068456 95.59605072730224 9.892471492635224 C 0.0 **** -0.24
33407 H 55.37172279166522 95.12208453794975 9.711038320551864 H 0.0 **** 0.06
33408 H 54.330413618273056 96.5022563746237 9.290609932361079 H 0.0 **** 0.06
33409 H 54.32120676312391 95.85207661685311 10.94832399458393 H 0.0 **** 0.06
33410 H 53.606713348480355 94.9088154097025 9.61770953200866 H 0.0 **** 0.06
33411 C 54.80036523440859 64.81794065107016 108.99261302647537 C 0.0 **** -0.24
33412 H 55.598664491764055 64.72207140573852 109.72776184596756 H 0.0 **** 0.06
33413 H 54.945307792104984 65.73127356034317 108.41578539971353 H 0.0 **** 0.06
33414 H 53.83872877572017 64.86020748320948 109.50534822134858 H 0.0 **** 0.06
33415 H 54.81753500052801 63.95784417357714 108.32339130843884 H 0.0 **** 0.06
33416 C 25.09848557502073 26.412909870119144 49.16856778353659 C 0.0 **** -0.24
33417 H 26.167230946745406 26.620787497681583 49.22408097935717 H 0.0 **** 0.06
33418 H 24.79034263451166 25.852721076581403 50.05204895515199 H 0.0 **** 0.06
33419 H 24.8891413286496 25.82461020238403 48.27412993777018 H 0.0 **** 0.06
33420 H 24.54784755655453 27.351858608010154 49.12308765213014 H 0.0 **** 0.06
33421 C 27.330425372307175 29.070296169020878 88.48995430918907 C 0.0 **** -0.24
33422 H 28.101939419359894 28.459270907582436 88.95850812273636 H 0.0 **** 0.06
33423 H 27.76802093657807 29.643196564126015 87.6727127902294 H 0.0 **** 0.06
33424 H 26.91047648944719 29.753506382498017 89.22860594918963 H 0.0 **** 0.06
33425 H 26.542568642075736 28.42504090876099 88.10111771039429 H 0.0 **** 0.06
33426 C 107.86145449173296 98.74655302069354 80.85968129339602 C 0.0 **** -0.24
33427 H 108.83501505430874 98.4725789955539 81.26765261892672 H 0.0 **** 0.06
33428 H 107.95703415752004 99.66237383387025 80.27453314456014 H 0.0 **** 0.06
33429 H 107.15845151831678 98.90921105667763 81.67627275687096 H 0.0 **** 0.06
33430 H 107.49650335534989 97.94252639806413 80.22087043967952 H 0.0 **** 0.06
33431 C 123.43583785932267 72.59206571944799 72.02811678028911 C 0.0 **** -0.24
33432 H 124.39507635025893 72.61048094189414 71.51021920362277 H 0.0 **** 0.06
33433 H 123.09604365441848 73.61393312153442 72.19745783950555 H 0.0 **** 0.06
33434 H 123.54963783754539 72.08360531990903 72.98518836655415 H 0.0 **** 0.06
33435 H 122.70462947643335 72.0618542600935 71.41847873831574 H 0.0 **** 0.06
33436 C 7.6829130868226265 17.576237080572014 85.72336631810322 C 0.0 **** -0.24
33437 H 7.4069275323583135 16.775756316851698 85.03706683431321 H 0.0 **** 0.06
33438 H 6.780131204789669 18.022724405914005 86.14127475592329 H 0.0 **** 0.06
33439 H 8.249810353276992 18.33633620071805 85.1861212463948 H 0.0 **** 0.06
33440 H 8.293220484766845 17.16902801984105 86.52958597843502 H 0.0 **** 0.06
33441 C 2.6661670561516075 62.212679929811316 70.40062839199157 C 0.0 **** -0.24
33442 H 1.5909776099550754 62.268959010360646 70.57375507796668 H 0.0 **** 0.06
33443 H 2.859859862060148 61.59794210697342 69.52097332444163 H 0.0 **** 0.06
33444 H 3.1502302181261257 61.76736328095562 71.26979834423966 H 0.0 **** 0.06
33445 H 3.0607195850601556 63.21532114578484 70.23863051122868 H 0.0 **** 0.06
33446 C 28.323211089229204 17.522254732644512 116.8939198501171 C 0.0 **** -0.24
33447 H 27.815642709677576 18.413435437229126 116.52408638807228 H 0.0 **** 0.06
33448 H 28.94001679721893 17.100376604396956 116.0996742346346 H 0.0 **** 0.06
33449 H 27.583409905928704 16.787115243541592 117.20987487894612 H 0.0 **** 0.06
33450 H 28.954386641122028 17.790110030277802 117.74130077768436 H 0.0 **** 0.06
33451 C 19.153580886197084 69.78754613646257 62.78769462527103 C 0.0 **** -0.24
33452 H 18.76664773486562 69.8782513256281 61.77251789260569 H 0.0 **** 0.06
33453 H 18.99059400896038 70.72334042525702 63.323215726673766 H 0.0 **** 0.06
33454 H 20.220729917905537 69.56923586344081 62.75186141756561 H 0.0 **** 0.06
33455 H 18.633600179612934 68.97880982942584 63.302823943662844 H 0.0 **** 0.06
33456 C 4.3508777133773435 34.776946802966194 56.46036622178167 C 0.0 **** -0.24
33457 H 4.169964239558286 34.9659200547367 55.402114877416906 H 0.0 **** 0.06
33458 H 5.199136231346966 34.10139688256979 56.56971542501641 H 0.0 **** 0.06
33459 H 3.4647817581875167 34.3233116716317 56.90439391908272 H 0.0 **** 0.06
33460 H 4.568316870785505 35.718215997083774 56.96564239668257 H 0.0 **** 0.06
33461 C 91.52483117483426 117.22694709519206 23.77346944781084 C 0.0 **** -0.24
33462 H 90.79592341040627 118.00980313559302 23.564755912413546 H 0.0 **** 0.06
33463 H 91.69861303794104 116.64222169269058 22.86924622975627 H 0.0 **** 0.06
33464 H 91.14394137039979 116.5760904169353 24.560642252070068 H 0.0 **** 0.06
33465 H 92.46140631582297 117.68086168274938 24.09870946984057 H 0.0 **** 0.06
33466 C 33.82830495589883 79.76238145555956 1.1665229518332723 C 0.0 **** -0.24
33467 H 33.88800680560655 80.02480585650478 2.22194964037843 H 0.0 **** 0.06
33468 H 33.923526369144625 80.66368423568466 0.5614786422823492 H 0.0 **** 0.06
33469 H 32.867861847937576 79.2878645652913 0.9638304251225875 H 0.0 **** 0.06
33470 H 34.633687732466 79.07113683807738 0.917914945451372 H 0.0 **** 0.06
33471 C 61.61993430827212 47.610901184417344 118.96450474887575 C 0.0 **** -0.24
33472 H 60.80004941611868 47.505328847141925 119.67600372846468 H 0.0 **** 0.06
33473 H 62.36490808271583 46.836945294961254 119.15208376282857 H 0.0 **** 0.06
33474 H 62.07770935154653 48.59293688444268 119.08219224395003 H 0.0 **** 0.06
33475 H 61.23637284861391 47.50867369155395 117.95007065315707 H 0.0 **** 0.06
33476 C 45.175859570359364 111.27602319986772 65.44045142759461 C 0.0 **** -0.24
33477 H 44.307129874273166 110.64437498275905 65.25470773733153 H 0.0 **** 0.06
33478 H 46.07095219529541 110.78093947265145 65.06257205422904 H 0.0 **** 0.06
33479 H 45.27888079448411 111.44526442247854 66.51193659442741 H 0.0 **** 0.06
33480 H 45.04603595306886 112.2306877995831 64.93168356001424 H 0.0 **** 0.06
33481 C 101.43367118271757 26.415669970354713 58.16900047589118 C 0.0 **** -0.24
33482 H 102.51087247587667 26.25554948976702 58.2104040229827 H 0.0 **** 0.06
33483 H 101.07989645910119 26.247878045775792 57.152022229307946 H 0.0 **** 0.06
33484 H 101.20738492842172 27.43867534650974 58.46947842385029 H 0.0 **** 0.06
33485 H 100.93697259426514 25.71912721289584 58.84574139176304 H 0.0 **** 0.06
33486 C 16.11306765641765 112.62063754356168 4.703428790903217 C 0.0 **** -0.24
33487 H 15.536127183366208 112.21351312283892 5.534551487910221 H 0.0 **** 0.06
33488 H 15.591713147572268 113.48272069792031 4.287368001065943 H 0.0 **** 0.06
33489 H 16.225732506570914 111.8570889154922 3.9329006167831153 H 0.0 **** 0.06
33490 H 17.09643475079293 112.92629906702084 5.059446500139018 H 0.0 **** 0.06
33491 C 126.15728598909686 115.11968762140971 27.755638040205667 C 0.0 **** -0.24
33492 H 126.80055281041518 114.24052002671174 27.78576411773446 H 0.0 **** 0.06
33493 H 126.7519300277635 115.99685817844353 27.49951349962464 H 0.0 **** 0.06
33494 H 125.69678141880715 115.26553210943605 28.733327897885374 H 0.0 **** 0.06
33495 H 125.38021446449588 114.97555592186556 27.005897890957698 H 0.0 **** 0.06
33496 C 50.64435923339579 105.23794979122698 121.66724829602572 C 0.0 **** -0.24
33497 H 50.418249896371236 104.21028016052148 121.38399376078394 H 0.0 **** 0.06
33498 H 50.712644617323406 105.85515729584634 120.77094058040689 H 0.0 **** 0.06
33499 H 51.59386653580523 105.26725803382695 122.20216829469302 H 0.0 **** 0.06
33500 H 49.85267588408331 105.6191036747131 122.31189054821891 H 0.0 **** 0.06
33501 C 28.936607173418082 1.7726994159670255 47.85978237608833 C 0.0 **** -0.24
33502 H 28.703114410315322 1.027654795266244 48.62049067941166 H 0.0 **** 0.06
33503 H 29.997662400042287 1.7230733324066705 47.61471189241075 H 0.0 **** 0.06
33504 H 28.697858774808196 2.7660493377601654 48.240039681083005 H 0.0 **** 0.06
33505 H 28.346001493556514 1.5752213213804396 46.96447691176243 H 0.0 **** 0.06
33506 C 82.90796598610507 54.978828657713734 45.45061995343148 C 0.0 **** -0.24
33507 H 82.35966949452433 54.04334775063944 45.55379845985923 H 0.0 **** 0.06
33508 H 83.4961508742561 54.956743819237545 44.532304452513166 H 0.0 **** 0.06
33509 H 83.57314689480654 55.10672424828908 46.30521728867152 H 0.0 **** 0.06
33510 H 82.20451282867117 55.810339055873385 45.411115944803214 H 0.0 **** 0.06
33511 C 38.48753596498557 96.7405724820226 5.253708907905619 C 0.0 **** -0.24
33512 H 38.38369101446307 97.71635251414064 5.728935235243966 H 0.0 **** 0.06
33513 H 37.55503437557226 96.48113503344419 4.750950962896582 H 0.0 **** 0.06
33514 H 38.7130031909162 95.98936138617346 6.0111169414823 H 0.0 **** 0.06
33515 H 39.29632726888596 96.77617913623031 4.524141749314097 H 0.0 **** 0.06
33516 C 107.00076833463949 118.23524939860431 60.454795861523564 C 0.0 **** -0.24
33517 H 107.48386730910498 117.460387826161 61.04961126649076 H 0.0 **** 0.06
33518 H 106.69111461849141 119.05267537766636 61.10568893552298 H 0.0 **** 0.06
33519 H 106.12673031313398 117.81762679103652 59.95504756078114 H 0.0 **** 0.06
33520 H 107.70136109782774 118.61030759955308 59.70883568329927 H 0.0 **** 0.06
33521 C 104.8439074410688 12.908121052734174 80.99040076565524 C 0.0 **** -0.24
33522 H 105.04572596468087 13.926356082881739 81.32195338687757 H 0.0 **** 0.06
33523 H 104.88460707739378 12.232812210334345 81.8452726853734 H 0.0 **** 0.06
33524 H 105.59068409741873 12.610337730663844 80.25514154323031 H 0.0 **** 0.06
33525 H 103.85253754385411 12.863630837609094 80.53871740645997 H 0.0 **** 0.06
33526 C 53.4768702534907 23.83911809000203 39.56688953233797 C 0.0 **** -0.24
33527 H 53.44636652429715 23.632166247529867 40.63680305588423 H 0.0 **** 0.06
33528 H 54.26449050759875 24.564268095420232 39.36010867772825 H 0.0 **** 0.06
33529 H 52.51678014890929 24.243649351641665 39.24702253115278 H 0.0 **** 0.06
33530 H 53.68162683602084 22.916061044744367 39.02493300370507 H 0.0 **** 0.06
33531 C 16.61994468180285 69.06285031232598 122.25898512324727 C 0.0 **** -0.24
33532 H 17.129534470150986 69.3676952808725 121.34522736958976 H 0.0 **** 0.06
33533 H 17.334374557838032 69.03390028940514 123.08165839650175 H 0.0 **** 0.06
33534 H 16.18663597778567 68.07226076489185 122.11991895269989 H 0.0 **** 0.06
33535 H 15.828586821279998 69.77679377249333 122.48926754054935 H 0.0 **** 0.06
33536 C 12.724806721858872 57.30289710645616 73.44793406118355 C 0.0 **** -0.24
33537 H 11.965133514611733 57.177806652355684 74.21945817644405 H 0.0 **** 0.06
33538 H 13.700807674905665 57.03107230301674 73.85273278904872 H 0.0 **** 0.06
33539 H 12.744400792790213 58.34246826425783 73.12133288119773 H 0.0 **** 0.06
33540 H 12.490707476636516 56.65957215898533 72.60070862888652 H 0.0 **** 0.06
33541 C 43.45972637084847 81.63255993053218 31.302445288390857 C 0.0 **** -0.24
33542 H 43.30874526306128 80.55959922698989 31.418567943621127 H 0.0 **** 0.06
33543 H 42.940265673756485 81.97846085583805 30.40855568258553 H 0.0 **** 0.06
33544 H 44.525620370792105 81.84086016588465 31.20704355114796 H 0.0 **** 0.06
33545 H 43.06528930741439 82.15271796038097 32.1757319161496 H 0.0 **** 0.06
33546 C 17.574185081466084 129.49088714367838 44.9600503586679 C 0.0 **** -0.24
33547 H 16.78388210859896 128.75472018768392 44.80851168059493 H 0.0 **** 0.06
33548 H 17.14621550037768 130.49309348846788 44.93395517915653 H 0.0 **** 0.06
33549 H 18.31737809073607 129.39184819229604 44.16931913539659 H 0.0 **** 0.06
33550 H 18.046910467331173 129.32153659885532 45.92670204677907 H 0.0 **** 0.06
33551 C 49.40449004587664 90.56145168295247 76.9834410588546 C 0.0 **** -0.24
33552 H 49.61268572267065 91.53063481923348 76.53045202518682 H 0.0 **** 0.06
33553 H 48.89062640165315 90.70838712217497 77.93353085117394 H 0.0 **** 0.06
33554 H 50.34181335124687 90.03296297295617 77.15580156833683 H 0.0 **** 0.06
33555 H 48.774448409340934 89.97590856339554 76.31540876330901 H 0.0 **** 0.06
33556 C 64.97338970099968 33.1419762191573 16.251870069900235 C 0.0 **** -0.24
33557 H 65.47624668999319 32.61450125647447 15.441084338345973 H 0.0 **** 0.06
33558 H 65.69978496185388 33.74366788468745 16.79849384860003 H 0.0 **** 0.06
33559 H 64.51759908263497 32.419330070218095 16.92846367398434 H 0.0 **** 0.06
33560 H 64.20108200827053 33.791139738330465 15.839078315960279 H 0.0 **** 0.06
33561 C 43.44963953974055 130.11486519005445 42.58533615515799 C 0.0 **** -0.24
33562 H 43.460035938515645 129.37829266384563 43.38854302801781 H 0.0 **** 0.06
33563 H 44.09164886737199 130.95351800591658 42.8531474673444 H 0.0 **** 0.06
33564 H 42.43094355924517 130.47019352483733 42.43234038858739 H 0.0 **** 0.06
33565 H 43.81570532717965 129.65523540189162 41.66718596278298 H 0.0 **** 0.06
33566 C 93.67565704944099 74.99914562299256 118.72417288360731 C 0.0 **** -0.24
33567 H 94.17331072272262 75.70312741237319 119.39164795342356 H 0.0 **** 0.06
33568 H 93.4516754439675 75.49181353424456 117.7786767337758 H 0.0 **** 0.06
33569 H 92.7493278506341 74.65566776317905 119.18479708234122 H 0.0 **** 0.06
33570 H 94.32990532708934 74.14556927031617 118.54427257490579 H 0.0 **** 0.06
33571 C 122.18573038354828 90.63678774594415 1.4172576166833153 C 0.0 **** -0.24
33572 H 121.24575817619416 90.36376706013952 0.9375114003138663 H 0.0 **** 0.06
33573 H 122.58578581664665 89.77307480550117 1.948775351059112 H 0.0 **** 0.06
33574 H 122.01033681172748 91.44987634678279 2.122526755175528 H 0.0 **** 0.06
33575 H 122.8990868255512 90.96017181439076 0.6598787529494246 H 0.0 **** 0.06
33576 C 80.03166427452942 83.0975795183631 112.3686858337449 C 0.0 **** -0.24
33577 H 79.54783148108555 82.29905476363417 111.80629405825732 H 0.0 **** 0.06
33578 H 79.27164537984163 83.75207380828559 112.79665315994413 H 0.0 **** 0.06
33579 H 80.67421099671202 83.67197577403314 111.70279469026292 H 0.0 **** 0.06
33580 H 80.63180418370138 82.66513065411657 113.16955259226228 H 0.0 **** 0.06
33581 C 35.035921556643046 120.53102758839351 75.33650115259691 C 0.0 **** -0.24
33582 H 34.444246789403756 121.43426920599128 75.18598189653088 H 0.0 **** 0.06
33583 H 35.27414653337436 120.08729050711344 74.36867582849754 H 0.0 **** 0.06
33584 H 34.46466488150785 119.81826069663114 75.93210311303766 H 0.0 **** 0.06
33585 H 35.95868233135373 120.78310552196857 75.85834279100975 H 0.0 **** 0.06
33586 C 21.327385955457174 46.16712723580329 4.023171487443083 C 0.0 **** -0.24
33587 H 20.75005219717073 46.9995418181218 3.619127874229669 H 0.0 **** 0.06
33588 H 20.659328897193888 45.329785194797665 4.228828080677541 H 0.0 **** 0.06
33589 H 21.815946196585216 46.47785937770297 4.946360993498637 H 0.0 **** 0.06
33590 H 22.08061970872157 45.86176325406572 3.2974365659162075 H 0.0 **** 0.06
33591 C 100.72178641840304 12.781965339523026 26.084452844858504 C 0.0 **** -0.24
33592 H 100.83478549188189 13.499447341915356 25.272722493609876 H 0.0 **** 0.06
33593 H 99.6622743708864 12.604234940323295 26.267391547845136 H 0.0 **** 0.06
33594 H 101.18603463282838 13.17848412481709 26.987349799617306 H 0.0 **** 0.06
33595 H 101.20606907078945 11.844403925457812 25.809835974676844 H 0.0 **** 0.06
33596 C 62.223236485627666 10.490238455947804 95.04233901946989 C 0.0 **** -0.24
33597 H 62.15896318388465 11.117425289523453 94.15299032140224 H 0.0 **** 0.06
33598 H 63.15268453653927 10.705321091508381 95.57144804548915 H 0.0 **** 0.06
33599 H 62.20695113489447 9.440767093854163 94.74787657407028 H 0.0 **** 0.06
33600 H 61.37657332304552 10.698371032560544 95.69525838471911 H 0.0 **** 0.06
33601 C 4.2923302716005765 38.47360286003516 41.76534813393036 C 0.0 **** -0.24
33602 H 3.265327030915728 38.61805585633863 41.43121328487598 H 0.0 **** 0.06
33603 H 4.539034786545471 37.4122465973079 41.73418329444334 H 0.0 **** 0.06
33604 H 4.3966353316606614 38.841215143574914 42.786726710321396 H 0.0 **** 0.06
33605 H 4.967687326719215 39.02392212514417 41.11050921805877 H 0.0 **** 0.06
33606 C 36.27625257731276 17.619589603117333 15.90027836405551 C 0.0 **** -0.24
33607 H 35.43613709297298 17.68972294188734 16.592208876834547 H 0.0 **** 0.06
33608 H 36.70808989504706 16.61914876568477 15.954677406134806 H 0.0 **** 0.06
33609 H 37.03128210350046 18.356533361884317 16.170072099920105 H 0.0 **** 0.06
33610 H 35.92714985371385 17.810243876550444 14.885218399264943 H 0.0 **** 0.06
33611 C 75.2525899223493 70.4804862516851 101.84845251726591 C 0.0 **** -0.24
33612 H 75.381564216453 71.55795382526635 101.74749356508613 H 0.0 **** 0.06
33613 H 75.55784540784938 70.17042715774389 102.84822146988299 H 0.0 **** 0.06
33614 H 75.86535011743032 69.97014179733827 101.10574334160094 H 0.0 **** 0.06
33615 H 74.20370641701398 70.22410404589304 101.69332634298962 H 0.0 **** 0.06
33616 C 38.84518234062102 93.04536323716508 17.719727568894058 C 0.0 **** -0.24
33617 H 38.77196808323538 94.0879650519289 18.031856858111553 H 0.0 **** 0.06
33618 H 39.371216220059864 92.4734664107267 18.484566691738962 H 0.0 **** 0.06
33619 H 39.39263933147831 92.98598379579317 16.779161046284713 H 0.0 **** 0.06
33620 H 37.84412119588748 92.63658218376344 17.584279885905488 H 0.0 **** 0.06
33621 C 103.73750231184603 105.86478432708178 10.761613988219551 C 0.0 **** -0.24
33622 H 104.15831988921191 106.64816763544044 10.131569856658416 H 0.0 **** 0.06
33623 H 104.4160292986383 105.01188307454773 10.782084943241216 H 0.0 **** 0.06
33624 H 102.77325558954418 105.55350889620189 10.35879966344217 H 0.0 **** 0.06
33625 H 103.60154506546505 106.24668540388775 11.774187319007865 H 0.0 **** 0.06
33626 C 35.03427659426771 19.775917901054356 45.02170557368507 C 0.0 **** -0.24
33627 H 35.247222117750425 19.32407910251402 45.99110561364964 H 0.0 **** 0.06
33628 H 34.06550434437003 19.427170480263072 44.66432059795383 H 0.0 **** 0.06
33629 H 35.809376442133996 19.489498435052923 44.31051459139249 H 0.0 **** 0.06
33630 H 35.0170468111873 20.860850965264007 45.123233042991814 H 0.0 **** 0.06
33631 C 30.587409975971184 95.23617583327886 20.879860151032872 C 0.0 **** -0.24
33632 H 30.911237981287627 94.63888027566423 20.0276425155474 H 0.0 **** 0.06
33633 H 29.538698045391556 95.02788317440277 21.091673563009294 H 0.0 **** 0.06
33634 H 30.709696763036362 96.29498797523404 20.64871877534229 H 0.0 **** 0.06
33635 H 31.19094250073144 94.98268982733259 21.751643282859092 H 0.0 **** 0.06
33636 C 70.75320485216936 18.91947225945583 51.8448206283082 C 0.0 **** -0.24
33637 H 70.70722638930367 18.523472616221824 50.83020801846892 H 0.0 **** 0.06
33638 H 70.03375225779544 18.393347485971745 52.47298717289645 H 0.0 **** 0.06
33639 H 70.51513509776325 19.98372736367213 51.830246177335596 H 0.0 **** 0.06
33640 H 71.75773695219546 18.777940331342734 52.24458492029923 H 0.0 **** 0.06
33641 C 103.91172824742102 126.30464242202578 55.4692291398089 C 0.0 **** -0.24
33642 H 104.81920654088816 126.19466807185063 56.0624881295484 H 0.0 **** 0.06
33643 H 104.16985297578591 126.67732774328016 54.47779897818174 H 0.0 **** 0.06
33644 H 103.24076680923326 127.01059852680584 55.95879752518496 H 0.0 **** 0.06
33645 H 103.41804325344845 125.33738120090845 55.37816158749757 H 0.0 **** 0.06
33646 C 92.67263340641847 31.531033426088783 37.48257691166445 C 0.0 **** -0.24
33647 H 93.35691156670055 31.260219301762305 38.28640746452069 H 0.0 **** 0.06
33648 H 91.68249121421411 31.12750528789425 37.69671706395788 H 0.0 **** 0.06
33649 H 93.03679284150587 31.120610988146353 36.54020073651269 H 0.0 **** 0.06
33650 H 92.6136003546585 32.61787447540192 37.40660168526417 H 0.0 **** 0.06
33651 C 123.84548299873681 24.284087249559548 39.502025745209146 C 0.0 **** -0.24
33652 H 124.75278343727322 24.80291281916942 39.80934535151197 H 0.0 **** 0.06
33653 H 124.0475274925939 23.21634924069565 39.41851512887731 H 0.0 **** 0.06
33654 H 123.51697384114001 24.66825519938004 38.536471410980496 H 0.0 **** 0.06
33655 H 123.06347316989859 24.44956233201549 40.244067641050314 H 0.0 **** 0.06
33656 C 52.465247802108024 6.363230166762378 46.30201249776576 C 0.0 **** -0.24
33657 H 52.93993250079643 5.844136130785728 45.46934132042088 H 0.0 **** 0.06
33658 H 52.23592604507826 5.647083136796169 47.09194762700383 H 0.0 **** 0.06
33659 H 51.54393259132166 6.8332422826105415 45.95875263606533 H 0.0 **** 0.06
33660 H 53.14151055534785 7.125568718062368 46.68726699138307 H 0.0 **** 0.06
33661 C 75.78478752652356 31.303252150987504 74.92307419737824 C 0.0 **** -0.24
33662 H 76.29391294599395 31.076905547918415 75.85991195942836 H 0.0 **** 0.06
33663 H 76.52165318733589 31.40166691812584 74.12495385062766 H 0.0 **** 0.06
33664 H 75.2328349416535 32.23718823470793 75.02573464480363 H 0.0 **** 0.06
33665 H 75.09263676912693 30.495894457760258 74.68247413046544 H 0.0 **** 0.06
33666 C 17.000056399019286 115.77970964098951 6.437602203930425 C 0.0 **** -0.24
33667 H 17.622344100521104 115.04124516650286 5.931261652830159 H 0.0 **** 0.06
33668 H 17.069498604766522 115.63492751819669 7.516138451914884 H 0.0 **** 0.06
33669 H 15.963864639222237 115.65994221390304 6.120581866352097 H 0.0 **** 0.06
33670 H 17.345063040345195 116.78150343727096 6.1813248389723014 H 0.0 **** 0.06
33671 C 33.181204256687124 103.48739805644516 47.6438288563628 C 0.0 **** -0.24
33672 H 32.131852766577595 103.21122998724101 47.54646844668176 H 0.0 **** 0.06
33673 H 33.70240931701784 103.2649795493876 46.71221476548632 H 0.0 **** 0.06
33674 H 33.63201086701707 102.918591070922 48.457484509679404 H 0.0 **** 0.06
33675 H 33.25806518994759 104.55262681039305 47.859438486672474 H 0.0 **** 0.06
33676 C 109.22262010150928 72.39125346119263 53.224761380083834 C 0.0 **** -0.24
33677 H 109.96711742801659 71.6671549706144 52.89576669112867 H 0.0 **** 0.06
33678 H 108.44337168812609 71.87838786691353 53.79057883396226 H 0.0 **** 0.06
33679 H 108.78066526332611 72.87842699590189 52.3555264607709 H 0.0 **** 0.06
33680 H 109.69882749530939 73.14014235623733 53.85814234640392 H 0.0 **** 0.06
33681 C 41.12772614786022 56.60941719602569 99.84432606004775 C 0.0 **** -0.24
33682 H 40.114453205488736 56.42434797934162 99.48763038492605 H 0.0 **** 0.06
33683 H 41.437148006188764 55.792612832019955 100.49761872317691 H 0.0 **** 0.06
33684 H 41.151679781556865 57.54788885766028 100.39773151996599 H 0.0 **** 0.06
33685 H 41.806390970306985 56.67102357788518 98.99381670543976 H 0.0 **** 0.06
33686 C 43.604298690149875 4.950826093532012 29.43571413887429 C 0.0 **** -0.24
33687 H 44.35042685431121 5.743404652468865 29.370810240324005 H 0.0 **** 0.06
33688 H 42.94981574637019 4.9961683376152095 28.564923314857282 H 0.0 **** 0.06
33689 H 43.01415842331947 5.0823862151755215 30.342478635495468 H 0.0 **** 0.06
33690 H 44.10547425748166 3.982674336592982 29.4648648744583 H 0.0 **** 0.06
33691 C 50.174066967353184 56.65930288383808 73.52511430235688 C 0.0 **** -0.24
33692 H 50.70517696585388 55.81768446690768 73.9702031719784 H 0.0 **** 0.06
33693 H 50.866105434314164 57.24796905637744 72.92298195648559 H 0.0 **** 0.06
33694 H 49.75733817339567 57.2844318053472 74.31609503863275 H 0.0 **** 0.06
33695 H 49.36784115977501 56.28744628743553 72.89359784814866 H 0.0 **** 0.06
33696 C 98.1973121456178 21.81007964025889 74.60310556774925 C 0.0 **** -0.24
33697 H 98.02716486820604 22.09044479667085 73.56304940670992 H 0.0 **** 0.06
33698 H 97.24237589497481 21.76219818446765 75.12702886939263 H 0.0 **** 0.06
33699 H 98.83611113726036 22.554375199434446 75.07823441437486 H 0.0 **** 0.06
33700 H 98.68350593220065 20.835264410095988 74.64163270515706 H 0.0 **** 0.06
33701 C 117.53033333104605 7.6814874575933345 40.45903697535968 C 0.0 **** -0.24
33702 H 118.490488328396 7.248005530519293 40.18184356306921 H 0.0 **** 0.06
33703 H 116.7271304218039 7.0112502975870825 40.151693933619214 H 0.0 **** 0.06
33704 H 117.41021271141 8.645000705028224 39.96387061810498 H 0.0 **** 0.06
33705 H 117.49334437797756 7.821024926155815 41.53946679052828 H 0.0 **** 0.06
33706 C 75.76034095472589 30.650865964844883 127.13973130989285 C 0.0 **** -0.24
33707 H 74.72347506884962 30.79638889173455 127.4434181617359 H 0.0 **** 0.06
33708 H 75.93771974041694 31.166210705287796 126.19578002211583 H 0.0 **** 0.06
33709 H 75.95580329833425 29.586156081966976 127.01483227635359 H 0.0 **** 0.06
33710 H 76.42233190039522 31.055169365576262 127.90617979186085 H 0.0 **** 0.06
33711 C 68.65887662251708 50.1222089627835 127.27045305990299 C 0.0 **** -0.24
33712 H 68.11364307146958 50.9400514888182 127.74263470182194 H 0.0 **** 0.06
33713 H 69.617054955773 49.98677904575129 127.77161217755668 H 0.0 **** 0.06
33714 H 68.82698197763955 50.3572430074565 126.21942258432233 H 0.0 **** 0.06
33715 H 68.07452276569522 49.20453169414202 127.34796147587429 H 0.0 **** 0.06
33716 C 6.887859774859066 42.73667807758048 9.16717553754954 C 0.0 **** -0.24
33717 H 7.152980715955863 42.887974420925474 10.2133111613918 H 0.0 **** 0.06
33718 H 7.2099910461141405 41.74542419505403 8.850676618405771 H 0.0 **** 0.06
33719 H 7.380605275985033 43.492263005200726 8.55521903318072 H 0.0 **** 0.06
33720 H 5.807595133600273 42.82342328971086 9.050042924466965 H 0.0 **** 0.06
33721 C 119.65243658120258 0.5656157657444254 66.01327968935023 C 0.0 **** -0.24
33722 H 119.49259543490177 1.4441837150866483 65.38931930540207 H 0.0 **** 0.06
33723 H 119.51978548830937 -0.33463181047585344 65.41279531164848 H 0.0 **** 0.06
33724 H 118.93241770010809 0.5654427605686934 66.83239709368866 H 0.0 **** 0.06
33725 H 120.66359253787007 0.5876435778152 66.41824241613621 H 0.0 **** 0.06
33726 C 113.43749847259336 20.133262642266303 13.788619139939826 C 0.0 **** -0.24
33727 H 114.48883037733175 20.416164494339263 13.848295618376767 H 0.0 **** 0.06
33728 H 112.9686073923818 20.652563448862757 12.953547150061752 H 0.0 **** 0.06
33729 H 112.93440509199105 20.407092882122576 14.71630257314051 H 0.0 **** 0.06
33730 H 113.35971643090896 19.05675717398062 13.637856496316772 H 0.0 **** 0.06
33731 C 112.34215123289178 65.21891677882402 4.543278770350213 C 0.0 **** -0.24
33732 H 111.68434692802509 65.97139051300272 4.979746775653339 H 0.0 **** 0.06
33733 H 113.35659211251023 65.61357569233809 4.487256392751476 H 0.0 **** 0.06
33734 H 111.99382518748251 64.9679968574726 3.5414506312161507 H 0.0 **** 0.06
33735 H 112.33348085267896 64.32479101124935 5.167009828128187 H 0.0 **** 0.06
33736 C 77.9699693497919 83.89647169985784 124.32071557560874 C 0.0 **** -0.24
33737 H 78.26761970796026 84.9433903810696 124.2655704491524 H 0.0 **** 0.06
33738 H 78.42977982529196 83.43380180753445 125.19490231533405 H 0.0 **** 0.06
33739 H 78.29860854491601 83.37717264574474 123.4192915016595 H 0.0 **** 0.06
33740 H 76.88567711770615 83.83025954381151 124.40272595652915 H 0.0 **** 0.06
33741 C 18.137007148524013 88.8839774109984 29.750150134864334 C 0.0 **** -0.24
33742 H 18.061251546274548 87.8354068226786 30.034363369917074 H 0.0 **** 0.06
33743 H 19.128803608031582 89.25832339267546 30.003393750321372 H 0.0 **** 0.06
33744 H 17.38252044906951 89.46036716714957 30.285152113011065 H 0.0 **** 0.06
33745 H 17.9749782805587 88.98157061633316 28.676381203242997 H 0.0 **** 0.06
33746 C 35.749261065372195 67.75670513119202 20.813345392331073 C 0.0 **** -0.24
33747 H 36.27204666632966 68.67262895037025 20.54040004025046 H 0.0 **** 0.06
33748 H 35.669949942811286 67.10964015780746 19.939629105250205 H 0.0 **** 0.06
33749 H 34.75052930408344 68.00266225896681 21.17646042315944 H 0.0 **** 0.06
33750 H 36.304169909098476 67.24186643727862 21.598262469865205 H 0.0 **** 0.06
33751 C 69.22957271209947 23.7245744093238 80.56034674094036 C 0.0 **** -0.24
33752 H 68.73916121093323 24.26101288795173 79.74767594569312 H 0.0 **** 0.06
33753 H 70.27876640643564 24.016144469468266 80.60558995364488 H 0.0 **** 0.06
33754 H 69.15727429947952 22.651571295612136 80.3820752047028 H 0.0 **** 0.06
33755 H 68.7430347338478 23.969428661315156 81.50405146861686 H 0.0 **** 0.06
33756 C 20.774065677373713 53.74316058153397 112.04260483316833 C 0.0 **** -0.24
33757 H 20.832947885621493 52.76838429103316 112.52588890002383 H 0.0 **** 0.06
33758 H 20.906564873405557 53.62406278476948 110.96675576920282 H 0.0 **** 0.06
33759 H 21.557157482869542 54.39172783572411 112.43603111800908 H 0.0 **** 0.06
33760 H 19.799190870245745 54.18937788145547 112.2416444210829 H 0.0 **** 0.06
33761 C 104.25396425284234 128.11454033900037 70.24168816337756 C 0.0 **** -0.24
33762 H 103.8677565462742 128.89418862126433 70.89872976561733 H 0.0 **** 0.06
33763 H 104.01874086173157 128.36257565651547 69.20613035699671 H 0.0 **** 0.06
33764 H 103.79385693414415 127.1607137104776 70.50068722418685 H 0.0 **** 0.06
33765 H 105.3351619115775 128.04139193940307 70.36182326009198 H 0.0 **** 0.06
33766 C 94.13357379528249 25.203652065186645 90.45543280298347 C 0.0 **** -0.24
33767 H 93.41701164676125 26.023234171253137 90.40433181718782 H 0.0 **** 0.06
33768 H 94.23286894382242 24.74653603301624 89.47038055338083 H 0.0 **** 0.06
33769 H 93.78269543416855 24.457716117146788 91.16877663534461 H 0.0 **** 0.06
33770 H 95.10176277218866 25.587904736160255 90.77762141399916 H 0.0 **** 0.06
33771 C 50.31358593871413 54.9843611226174 114.15120504080035 C 0.0 **** -0.24
33772 H 50.90831902104664 55.53368780019929 113.42002767327152 H 0.0 **** 0.06
33773 H 49.255800781903986 55.08001478675564 113.90436813566858 H 0.0 **** 0.06
33774 H 50.493654006513424 55.39278645806155 115.14562381882563 H 0.0 **** 0.06
33775 H 50.59796220609232 53.932578352965635 114.13269618639323 H 0.0 **** 0.06
33776 C 30.710362153492845 121.53161655915756 87.51105314492946 C 0.0 **** -0.24
33777 H 31.747650490647423 121.82430527227615 87.35169934885806 H 0.0 **** 0.06
33778 H 30.222399577659722 122.26128485634268 88.15810973598826 H 0.0 **** 0.06
33779 H 30.678291079160758 120.54941973278022 87.98060740675709 H 0.0 **** 0.06
33780 H 30.1932025431381 121.4930559966175 86.5519433853458 H 0.0 **** 0.06
33781 C 10.116940541657073 109.67505913715476 109.0293627180954 C 0.0 **** -0.24
33782 H 10.593818582650286 110.12193249164284 109.90194052607936 H 0.0 **** 0.06
33783 H 10.862445625492128 109.513052212583 108.25062115880891 H 0.0 **** 0.06
33784 H 9.341594407664843 110.3449632228018 108.65677260177631 H 0.0 **** 0.06
33785 H 9.669275846863172 108.72152308773923 109.30915689765023 H 0.0 **** 0.06
33786 C 82.46174988544398 60.93265831503301 5.350333359804807 C 0.0 **** -0.24
33787 H 82.62383535713676 59.85874543898923 5.259279034585575 H 0.0 **** 0.06
33788 H 83.37394264200915 61.462288648367064 5.072109239002401 H 0.0 **** 0.06
33789 H 82.20071384412668 61.17385524762369 6.380306001059495 H 0.0 **** 0.06
33790 H 81.65012054283137 61.23466011867882 4.688532649118827 H 0.0 **** 0.06
33791 C 16.094802466760456 87.10715294174798 117.34655483799494 C 0.0 **** -0.24
33792 H 15.249439630557976 86.44825175555529 117.151269647055 H 0.0 **** 0.06
33793 H 16.060934111515927 87.44519541118137 118.38242776099561 H 0.0 **** 0.06
33794 H 16.044251667323284 87.96867799575568 116.68052880044505 H 0.0 **** 0.06
33795 H 17.024651091938935 86.56646455313746 117.17099558167814 H 0.0 **** 0.06
33796 C 47.878404619906775 2.211148498438149 61.73907319137919 C 0.0 **** -0.24
33797 H 48.42658949060018 1.4037798106896275 61.255183193955645 H 0.0 **** 0.06
33798 H 48.28408429948519 2.379125067846303 62.73749766302217 H 0.0 **** 0.06
33799 H 46.82579677746284 1.940974266038097 61.815565103006236 H 0.0 **** 0.06
33800 H 47.97806232871167 3.1227501283191827 61.14905765504477 H 0.0 **** 0.06
33801 C 97.38599828917621 33.60273438353954 25.100314332981938 C 0.0 **** -0.24
33802 H 96.8457136391915 34.02585700941767 24.25358403450329 H 0.0 **** 0.06
33803 H 97.39545229856091 32.51565585763055 25.019256412447305 H 0.0 **** 0.06
33804 H 96.8923763189469 33.894137714273775 26.027147592417407 H 0.0 **** 0.06
33805 H 98.41033190112388 33.976787923039126 25.0999528004359 H 0.0 **** 0.06
33806 C 129.1600870028267 69.89188052215718 67.41279085435752 C 0.0 **** -0.24
33807 H 129.86110657024466 69.92392187140872 68.24686602458365 H 0.0 **** 0.06
33808 H 129.62630242399453 70.32692540916263 66.52929408253993 H 0.0 **** 0.06
33809 H 128.26567498685912 70.46014638578538 67.66920566295863 H 0.0 **** 0.06
33810 H 128.88625427547947 68.85665039653881 67.20778907834398 H 0.0 **** 0.06
33811 C 69.99619600617588 91.08419609480956 77.40203019878197 C 0.0 **** -0.24
33812 H 69.63931183089373 92.1072494804502 77.27968652755669 H 0.0 **** 0.06
33813 H 70.86208405236584 91.07913068526756 78.06347986280693 H 0.0 **** 0.06
33814 H 70.27851024207732 90.68005122885523 76.42992317538972 H 0.0 **** 0.06
33815 H 69.20461738571218 90.47207132314378 77.83330502509799 H 0.0 **** 0.06
33816 C 74.0286659224351 69.37506283491588 122.94760651725827 C 0.0 **** -0.24
33817 H 73.99310906430895 68.48127102552606 123.56935268917599 H 0.0 **** 0.06
33818 H 73.83747226274573 69.10353210697754 121.90880259428485 H 0.0 **** 0.06
33819 H 75.01353832255518 69.83446711265927 123.02836234473804 H 0.0 **** 0.06
33820 H 73.26919316929667 70.0812626559557 123.2842182521253 H 0.0 **** 0.06
33821 C 22.632149065754085 68.02211357654026 93.25963881612124 C 0.0 **** -0.24
33822 H 22.032516486448003 68.93140401788195 93.221375025622 H 0.0 **** 0.06
33823 H 22.691857540050492 67.66940515379954 94.29008058063091 H 0.0 **** 0.06
33824 H 23.635615118607724 68.23260588469738 92.88868412761498 H 0.0 **** 0.06
33825 H 22.168990114450565 67.25501172569622 92.639338900545 H 0.0 **** 0.06
33826 C 82.14569311418313 21.758713074890686 28.068458489032764 C 0.0 **** -0.24
33827 H 82.43181078618439 22.777367230286167 28.32887126933946 H 0.0 **** 0.06
33828 H 82.78555936443314 21.054143492611168 28.60066560144557 H 0.0 **** 0.06
33829 H 82.25962358784263 21.612968133208675 26.994356204123676 H 0.0 **** 0.06
33830 H 81.10623921677173 21.59048874498604 28.349060709285396 H 0.0 **** 0.06
33831 C 129.39866718550238 92.28081084160436 52.13290332068925 C 0.0 **** -0.24
33832 H 129.32498322389944 92.59314890012666 51.09117250833509 H 0.0 **** 0.06
33833 H 128.8496211640716 91.35022938718004 52.27261025783355 H 0.0 **** 0.06
33834 H 128.976207302668 93.05378001484894 52.77490158781097 H 0.0 **** 0.06
33835 H 130.44631774357063 92.12730117244632 52.39224590434725 H 0.0 **** 0.06
33836 C 128.0458940389667 126.65124734652622 71.18599865810904 C 0.0 **** -0.24
33837 H 127.98582825270722 127.73434606742961 71.07654197853202 H 0.0 **** 0.06
33838 H 127.06585281701894 126.21261843635742 70.99942875509214 H 0.0 **** 0.06
33839 H 128.36714807750582 126.40581715690783 72.19852389971533 H 0.0 **** 0.06
33840 H 128.7656623254191 126.25327321937948 70.46966440616569 H 0.0 **** 0.06
33841 C 0.6373713043910243 39.68736784161389 62.415874153551385 C 0.0 **** -0.24
33842 H 1.0668244580160149 39.987174490053356 63.37126589271202 H 0.0 **** 0.06
33843 H 0.7286620305778229 38.60749072417911 62.29918703687855 H 0.0 **** 0.06
33844 H 1.1694233197414974 40.18736726018027 61.60603913991639 H 0.0 **** 0.06
33845 H -0.41556400729621146 39.96877647176257 62.38656687424651 H 0.0 **** 0.06
33846 C 65.03564754194988 130.4881927527972 74.57148700754408 C 0.0 **** -0.24
33847 H 65.15170740972083 129.57348701055818 75.1526995109698 H 0.0 **** 0.06
33848 H 65.88553694720154 131.14543414974912 74.75570758442711 H 0.0 **** 0.06
33849 H 64.11498935521522 130.99114289871085 74.86613779013805 H 0.0 **** 0.06
33850 H 64.99104983247759 130.24042135886026 73.51085942825648 H 0.0 **** 0.06
33851 C 34.483727810941275 73.46001702209969 127.35134157609917 C 0.0 **** -0.24
33852 H 35.29569222474461 73.34606215238244 128.0686556466469 H 0.0 **** 0.06
33853 H 33.85453642488932 72.56978771225602 127.37117799125355 H 0.0 **** 0.06
33854 H 34.8977344827439 73.5899019626267 126.35119415019679 H 0.0 **** 0.06
33855 H 33.88723916620856 74.33330145857525 127.61296533360716 H 0.0 **** 0.06
33856 C 8.758000161516861 6.748307562896173 48.529285314354404 C 0.0 **** -0.24
33857 H 9.731056305934658 7.203002936749158 48.717629095780865 H 0.0 **** 0.06
33858 H 8.703478740795731 5.785366058377292 49.03678460047858 H 0.0 **** 0.06
33859 H 8.627315198699307 6.601511715131039 47.45682649090426 H 0.0 **** 0.06
33860 H 7.972556013330291 7.402930802058677 48.906096059212544 H 0.0 **** 0.06
33861 C 50.70361763760174 55.414551436211525 82.97327377801122 C 0.0 **** -0.24
33862 H 51.40439482542017 56.11928408841462 83.41960955661284 H 0.0 **** 0.06
33863 H 49.70868955166556 55.57974304324128 83.38665048698563 H 0.0 **** 0.06
33864 H 51.023479659121264 54.395320417142585 83.19261358516906 H 0.0 **** 0.06
33865 H 50.67861586583551 55.561052458937084 81.89343081073677 H 0.0 **** 0.06
33866 C 92.378611746811 52.68930664721725 109.6999449900271 C 0.0 **** -0.24
33867 H 91.37657706480903 52.681138135509045 109.27094120715311 H 0.0 **** 0.06
33868 H 93.07606739757563 52.22396193609248 109.00427889214818 H 0.0 **** 0.06
33869 H 92.37554758775315 52.13499626295044 110.63804947999942 H 0.0 **** 0.06
33870 H 92.68487576295863 53.71896178856289 109.88737275930578 H 0.0 **** 0.06
33871 C 93.44841740953547 31.409258112699632 64.15233403752995 C 0.0 **** -0.24
33872 H 92.46849917987402 31.164731082369542 63.74177917949412 H 0.0 **** 0.06
33873 H 94.10158242674004 31.752910996675183 63.35043965176135 H 0.0 **** 0.06
33874 H 93.87903163663447 30.52159158090504 64.61642026011437 H 0.0 **** 0.06
33875 H 93.34319355782966 32.19601797985288 64.89870409841996 H 0.0 **** 0.06
33876 C 87.27113257907352 91.48980429685992 34.492871466069545 C 0.0 **** -0.24
33877 H 87.2245588282374 92.40702995218226 35.07943043173964 H 0.0 **** 0.06
33878 H 86.73827212172247 91.63242354662225 33.55275713693277 H 0.0 **** 0.06
33879 H 86.8079228825423 90.67671301560796 35.05385626329547 H 0.0 **** 0.06
33880 H 88.3122481456474 91.24229504521043 34.2879105769546 H 0.0 **** 0.06
33881 C 121.29105668875258 62.507989530562185 31.006991409440083 C 0.0 **** -0.24
33882 H 120.53073095518994 63.27893129145215 31.13887828175342 H 0.0 **** 0.06
33883 H 120.84659991557037 61.52676690963429 31.17900570177089 H 0.0 **** 0.06
33884 H 122.09978912510273 62.6705275074589 31.718742534194696 H 0.0 **** 0.06
33885 H 121.68487391954818 62.55584943647514 29.99137094362286 H 0.0 **** 0.06
33886 C 116.78403436371715 114.1613322028755 4.41753208820154 C 0.0 **** -0.24
33887 H 116.74349300302967 115.2342432768442 4.604185960834002 H 0.0 **** 0.06
33888 H 116.19910724222208 113.92547836335204 3.527469279443949 H 0.0 **** 0.06
33889 H 116.37287213627818 113.62774152745801 5.273700302089651 H 0.0 **** 0.06
33890 H 117.81970697544247 113.85849262037472 4.262852073964723 H 0.0 **** 0.06
33891 C 33.252059106082754 29.14373492813712 57.386738666386975 C 0.0 **** -0.24
33892 H 32.89775961827314 29.688376820612405 56.51210817424618 H 0.0 **** 0.06
33893 H 32.669443819773505 29.43970078095947 58.25964654367931 H 0.0 **** 0.06
33894 H 34.30336379288201 29.372868416186066 57.556154359613345 H 0.0 **** 0.06
33895 H 33.13526977187061 28.072194806659866 57.218960257186836 H 0.0 **** 0.06
33896 C 101.10226528352578 123.58603766271845 32.14039068998824 C 0.0 **** -0.24
33897 H 101.16873637964402 123.17575942890049 33.14837723354353 H 0.0 **** 0.06
33898 H 101.5761744124401 124.56669384235337 32.1157331073661 H 0.0 **** 0.06
33899 H 100.05423011017774 123.67987414095377 31.855088241396118 H 0.0 **** 0.06
33900 H 101.61087964560822 122.91966470697751 31.44301271590082 H 0.0 **** 0.06
33901 C 55.227365266454825 4.427950376325214 67.25069648943577 C 0.0 **** -0.24
33902 H 54.46332655740176 3.708946431865911 67.54611253913012 H 0.0 **** 0.06
33903 H 55.96740892808971 4.518134521068646 68.04560129156478 H 0.0 **** 0.06
33904 H 54.76300968653116 5.398275066104759 67.07425564439293 H 0.0 **** 0.06
33905 H 55.713566590345536 4.086044293038981 66.33728533062573 H 0.0 **** 0.06
33906 C 84.27759101689236 23.2662024015913 71.86453273900301 C 0.0 **** -0.24
33907 H 84.28380071745528 22.176434909578262 71.87050754307559 H 0.0 **** 0.06
33908 H 84.35139999066706 23.623987722136206 70.83744443494811 H 0.0 **** 0.06
33909 H 85.12673766486884 23.637236757336353 72.43996565770159 H 0.0 **** 0.06
33910 H 83.35158031669164 23.62698385818888 72.3100675689398 H 0.0 **** 0.06
33911 C 118.99948008501921 114.6534696899024 0.928055108469426 C 0.0 **** -0.24
33912 H 118.31829286958055 114.70322575535452 0.07828054457949207 H 0.0 **** 0.06
33913 H 119.9930381479959 114.36775203906514 0.5812924787050981 H 0.0 **** 0.06
33914 H 118.63567417278315 113.9142958743053 1.6415863163449558 H 0.0 **** 0.06
33915 H 119.05028779445588 115.62964993909783 1.4103435780561 H 0.0 **** 0.06
33916 C 21.18009682402392 54.725962880361024 6.019338999829955 C 0.0 **** -0.24
33917 H 20.34156212670146 54.329007196765644 6.591232519690834 H 0.0 **** 0.06
33918 H 21.45253238835714 54.02041165793855 5.234467161630903 H 0.0 **** 0.06
33919 H 22.032087593431683 54.88009980271005 6.681514964992061 H 0.0 **** 0.06
33920 H 20.89369913903758 55.677200899107575 5.569421080014195 H 0.0 **** 0.06
33921 C 41.592317427992384 115.56601415827652 13.494993178896436 C 0.0 **** -0.24
33922 H 42.175495457000295 114.931660881759 14.161785291413594 H 0.0 **** 0.06
33923 H 42.202855237423364 115.84944126784143 12.637371377375416 H 0.0 **** 0.06
33924 H 41.27808974961914 116.46257147298473 14.0288006196281 H 0.0 **** 0.06
33925 H 40.71276385752424 115.02137774016688 13.151936115379613 H 0.0 **** 0.06
33926 C 15.476266183076433 85.85480117876511 99.72690443769008 C 0.0 **** -0.24
33927 H 15.173024246844278 86.31379844465539 98.78503746210228 H 0.0 **** 0.06
33928 H 16.466508658823216 86.21548209271168 100.00421393533395 H 0.0 **** 0.06
33929 H 15.502345735312417 84.77183472646152 99.6108573521384 H 0.0 **** 0.06
33930 H 14.76034970539277 86.11969359782384 100.50596551296411 H 0.0 **** 0.06
33931 C 3.8312464031622895 14.022512591221655 32.59993549024699 C 0.0 **** -0.24
33932 H 4.918039279417563 14.099784047009905 32.5537413498088 H 0.0 **** 0.06
33933 H 3.525896114965601 13.809251698609756 33.62447318075928 H 0.0 **** 0.06
33934 H 3.4970671348277875 13.217406869440765 31.945929806327058 H 0.0 **** 0.06
33935 H 3.386774941792975 14.962865190598308 32.274788528137805 H 0.0 **** 0.06
33936 C 34.79622155485211 68.28261573352438 104.70208153075956 C 0.0 **** -0.24
33937 H 35.10541521940357 67.70202474072966 103.83320880135362 H 0.0 **** 0.06
33938 H 35.67609948893219 68.70506072588034 105.18826212512774 H 0.0 **** 0.06
33939 H 34.26978248725844 67.63416454606153 105.40268516759048 H 0.0 **** 0.06
33940 H 34.13409517373231 69.08789512762411 104.38408433383148 H 0.0 **** 0.06
33941 C 11.556600793133896 23.83552568977686 0.1946187199398821 C 0.0 **** -0.24
33942 H 10.950217822186232 24.334941705214334 0.9497178924636103 H 0.0 **** 0.06
33943 H 12.320948710986386 24.52288694497426 -0.16999932812316843 H 0.0 **** 0.06
33944 H 10.921403181291396 23.524924188809308 -0.6345701232341128 H 0.0 **** 0.06
33945 H 12.035827983257832 22.960306166447424 0.6336546793693287 H 0.0 **** 0.06
33946 C 77.61836504412051 43.93854644071675 81.99701073101579 C 0.0 **** -0.24
33947 H 76.56592788144155 43.96782260492401 81.71125820133938 H 0.0 **** 0.06
33948 H 78.17650897793962 43.355040045874574 81.2644602988035 H 0.0 **** 0.06
33949 H 77.71443405155523 43.4764160879638 82.97929466585077 H 0.0 **** 0.06
33950 H 78.01331781620891 44.95359739293545 82.03177147800255 H 0.0 **** 0.06
33951 C 25.634927980329202 94.4495438786683 93.77057054868618 C 0.0 **** -0.24
33952 H 24.663689543434288 94.30189737399786 93.29867664071159 H 0.0 **** 0.06
33953 H 25.820821628238654 95.51653414630164 93.89256554523749 H 0.0 **** 0.06
33954 H 26.413341755433294 94.01461372041757 93.14207684674008 H 0.0 **** 0.06
33955 H 25.642664320808123 93.96439031136413 94.7463546467637 H 0.0 **** 0.06
33956 C 69.45581175892022 114.3078955489708 21.559572456921373 C 0.0 **** -0.24
33957 H 68.5839169580205 113.87353041853805 21.070447871501557 H 0.0 **** 0.06
33958 H 69.21971054790833 114.51548976633131 22.60316304644634 H 0.0 **** 0.06
33959 H 69.72936498603804 115.23549348422534 21.05689744894196 H 0.0 **** 0.06
33960 H 70.28852704238494 113.60709593022841 21.507904570733793 H 0.0 **** 0.06
33961 C 125.34211777115806 17.619256438120914 122.76264650184152 C 0.0 **** -0.24
33962 H 126.10121682992961 18.328453017711126 123.0922755142131 H 0.0 **** 0.06
33963 H 125.67222578850576 17.135379519748568 121.84243326840243 H 0.0 **** 0.06
33964 H 124.40630790927842 18.147292366146985 122.58005017208984 H 0.0 **** 0.06
33965 H 125.18892726058398 16.86488105335789 123.53486924130522 H 0.0 **** 0.06
33966 C 95.15812771748215 88.33952155865062 23.714038998300055 C 0.0 **** -0.24
33967 H 94.50155877352594 89.00240167171083 23.151303185762572 H 0.0 **** 0.06
33968 H 95.80244647931076 88.93235318152439 24.364453908566986 H 0.0 **** 0.06
33969 H 95.77223091585768 87.76273260951191 23.02210889633062 H 0.0 **** 0.06
33970 H 94.55680433209456 87.66085488630996 24.31909867582823 H 0.0 **** 0.06
33971 C 118.40765524459437 76.89509838375623 53.982828299654045 C 0.0 **** -0.24
33972 H 117.73038554401381 76.08930527771197 54.26513959922136 H 0.0 **** 0.06
33973 H 118.71756672405186 77.43914488244432 54.875907712058236 H 0.0 **** 0.06
33974 H 117.89679049851358 77.57653383491424 53.30129216463477 H 0.0 **** 0.06
33975 H 119.28446374890243 76.47714093326348 53.48901675375251 H 0.0 **** 0.06
33976 C 21.52426478284471 85.88522689722414 13.741090713148303 C 0.0 **** -0.24
33977 H 20.660539720420644 86.55089410777005 13.742397920808564 H 0.0 **** 0.06
33978 H 21.893403005800792 85.77149169611133 12.721804321437656 H 0.0 **** 0.06
33979 H 21.23259979770168 84.91133687983901 14.133642892552743 H 0.0 **** 0.06
33980 H 22.30948850413054 86.30980904626412 14.36754601281319 H 0.0 **** 0.06
33981 C 111.86253024504813 120.8192924345434 115.32404833260034 C 0.0 **** -0.24
33982 H 110.81159542059915 120.94841279670004 115.06310109743094 H 0.0 **** 0.06
33983 H 112.2545147051167 119.9340861543198 114.82181972829062 H 0.0 **** 0.06
33984 H 111.95591394636499 120.69706448619189 116.40305123885736 H 0.0 **** 0.06
33985 H 112.42537658953347 121.69729772217579 115.00699442047437 H 0.0 **** 0.06
33986 C 33.48200984486752 81.80831066230493 119.69376063969632 C 0.0 **** -0.24
33987 H 33.483449390714384 80.72737239066461 119.83488067300397 H 0.0 **** 0.06
33988 H 32.48494476585421 82.19994972735267 119.89973307389369 H 0.0 **** 0.06
33989 H 33.758673073317254 82.04147875170455 118.66591117134612 H 0.0 **** 0.06
33990 H 34.19864353371037 82.26435787486716 120.37640735260115 H 0.0 **** 0.06
33991 C 97.87345950167216 110.40222954378794 83.42660466068598 C 0.0 **** -0.24
33992 H 98.6256193575179 109.8878798303935 82.82854664843381 H 0.0 **** 0.06
33993 H 97.04468101875004 109.72333186308998 83.62897973383436 H 0.0 **** 0.06
33994 H 97.50704563769885 111.27140833302684 82.87919196956946 H 0.0 **** 0.06
33995 H 98.31615750885149 110.72652013163986 84.3677409369603 H 0.0 **** 0.06
33996 C 105.41838440406535 98.97891965232276 15.93698766237081 C 0.0 **** -0.24
33997 H 104.36815809064433 98.8184298093426 15.689631093635182 H 0.0 **** 0.06
33998 H 105.57345444284498 98.79203598739929 16.999277740937934 H 0.0 **** 0.06
33999 H 105.69128897561237 100.00808336416134 15.705290498019103 H 0.0 **** 0.06
34000 H 106.03658824418754 98.29860632798392 15.353092002813671 H 0.0 **** 0.06
34001 C 71.90322821459758 105.78639768580028 47.95416810414312 C 0.0 **** -0.24
34002 H 72.07766281342487 105.16670115134207 47.07455270546524 H 0.0 **** 0.06
34003 H 72.838436272196 105.91277810605395 48.49981025768625 H 0.0 **** 0.06
34004 H 71.16857831620723 105.30354140253039 48.59939121754965 H 0.0 **** 0.06
34005 H 71.52851441835875 106.76181313762086 47.64407984057658 H 0.0 **** 0.06
34006 C 47.8464619570755 80.34016774619413 112.21643928449512 C 0.0 **** -0.24
34007 H 48.87751590334359 80.21910881870255 112.5488907455342 H 0.0 **** 0.06
34008 H 47.25980883520119 79.47691757008657 112.5317958405075 H 0.0 **** 0.06
34009 H 47.821992360767084 80.41903349393829 111.12992795971871 H 0.0 **** 0.06
34010 H 47.427091084867165 81.2452529847317 112.65639073691422 H 0.0 **** 0.06
34011 C 106.8987090367632 93.79513168379091 30.081350097921813 C 0.0 **** -0.24
34012 H 106.29672123718896 93.86793995149212 30.986204794905206 H 0.0 **** 0.06
34013 H 106.29433392091099 94.07604574050843 29.218998970732002 H 0.0 **** 0.06
34014 H 107.25081781642659 92.7711114139053 29.961065826984623 H 0.0 **** 0.06
34015 H 107.75479066692203 94.46626287268487 30.160113778907657 H 0.0 **** 0.06
34016 C 104.06257575301953 45.847909134249974 72.1195472270337 C 0.0 **** -0.24
34017 H 103.04941657144832 46.245016000959765 72.17946434115669 H 0.0 **** 0.06
34018 H 104.74171914085429 46.49979721061277 72.66930597643733 H 0.0 **** 0.06
34019 H 104.37163181865594 45.797423032025094 71.07512489145 H 0.0 **** 0.06
34020 H 104.08733855922782 44.84802952467861 72.5540067726651 H 0.0 **** 0.06
34021 C 20.268201435130003 45.91867420790713 0.03203666912963854 C 0.0 **** -0.24
34022 H 19.545151464927002 45.593685063734355 0.781028217429423 H 0.0 **** 0.06
34023 H 20.13791170393523 45.330895151451315 -0.8766650650822498 H 0.0 **** 0.06
34024 H 21.2777897884735 45.776051830164995 0.41611169960879124 H 0.0 **** 0.06
34025 H 20.109706745654023 46.97314511006254 -0.19199674404711686 H 0.0 **** 0.06
34026 C 30.114100872428224 16.1629329952641 4.061673531502109 C 0.0 **** -0.24
34027 H 29.410589884457636 16.591494808566836 4.776065286050827 H 0.0 **** 0.06
34028 H 30.787203389706434 15.480073062828339 4.581768601739245 H 0.0 **** 0.06
34029 H 30.692746131150045 16.961002765147526 3.5973258866093687 H 0.0 **** 0.06
34030 H 29.56550985206826 15.618101290903894 3.2937140629420902 H 0.0 **** 0.06
34031 C 15.461582121294526 116.83227366938502 66.91943034480653 C 0.0 **** -0.24
34032 H 16.388103556215896 116.38605997853362 67.2819519178792 H 0.0 **** 0.06
34033 H 15.685404704492868 117.53080633133723 66.11305136959568 H 0.0 **** 0.06
34034 H 14.971075588362169 117.36249467786863 67.73467165563784 H 0.0 **** 0.06
34035 H 14.802123848085074 116.04684647165867 66.54732485921687 H 0.0 **** 0.06
34036 C 31.09310989373023 24.512516121391343 124.57685255172774 C 0.0 **** -0.24
34037 H 30.23610612289241 25.18236842322375 124.51133260307729 H 0.0 **** 0.06
34038 H 31.555823330353917 24.416128094028522 123.59457606198787 H 0.0 **** 0.06
34039 H 30.76215414329937 23.53301003612887 124.9214502417445 H 0.0 **** 0.06
34040 H 31.818546849976144 24.919121152454636 125.28242757589608 H 0.0 **** 0.06
34041 C 51.799799754881974 95.15726191472771 76.23723456343707 C 0.0 **** -0.24
34042 H 51.27195776780957 94.95745240952192 77.16882641235077 H 0.0 **** 0.06
34043 H 52.85682838177479 95.32282028365103 76.44645071904652 H 0.0 **** 0.06
34044 H 51.37879474165197 96.04453507560095 75.76445387232059 H 0.0 **** 0.06
34045 H 51.6910524798692 94.30353025887064 75.56773190831571 H 0.0 **** 0.06
34046 C 62.42802029301379 56.37038868343143 22.506758371002547 C 0.0 **** -0.24
34047 H 62.47147721554478 57.38116876413244 22.098543094955033 H 0.0 **** 0.06
34048 H 61.695243363556585 56.337153288560444 23.312892255378898 H 0.0 **** 0.06
34049 H 63.407976372953044 56.09354559878102 22.893971993841575 H 0.0 **** 0.06
34050 H 62.13687498346036 55.674208419866204 21.720486220888432 H 0.0 **** 0.06
34051 C 110.31056820061062 105.78326942172419 32.95978473997394 C 0.0 **** -0.24
34052 H 110.9062467545655 105.84199257541997 32.04869136587064 H 0.0 **** 0.06
34053 H 110.30438374794156 106.75624161484382 33.45246659362698 H 0.0 **** 0.06
34054 H 110.74357233684304 105.04039387352424 33.62898333241486 H 0.0 **** 0.06
34055 H 109.28982389287873 105.4961488518162 32.70880612738512 H 0.0 **** 0.06
34056 C 117.53242603443233 13.504038532451371 51.28787823463634 C 0.0 **** -0.24
34057 H 118.39166852565864 12.842072446359936 51.188527267276186 H 0.0 **** 0.06
34058 H 117.13811767582322 13.739741560218476 50.29868080668061 H 0.0 **** 0.06
34059 H 117.8397090642192 14.4249579935546 51.785400157786356 H 0.0 **** 0.06
34060 H 116.76086483063018 13.01168035365287 51.87944156855657 H 0.0 **** 0.06
34061 C 76.2627402628774 79.22153132265498 6.839539330694912 C 0.0 **** -0.24
34062 H 76.44014198375402 79.79280935351113 5.92832776775024 H 0.0 **** 0.06
34063 H 77.20840762921873 79.05949587144067 7.356398297054692 H 0.0 **** 0.06
34064 H 75.81722584630859 78.26050919119743 6.585126747051678 H 0.0 **** 0.06
34065 H 75.58458541230809 79.77545481175781 7.488513309195174 H 0.0 **** 0.06
34066 C 19.535843586227116 51.55520766505876 79.83351023316905 C 0.0 **** -0.24
34067 H 19.47288248714517 51.400570821410085 78.75619187817615 H 0.0 **** 0.06
34068 H 18.727202604899475 51.01384158653522 80.32521648527495 H 0.0 **** 0.06
34069 H 19.44756687679717 52.618828620159476 80.05373313590337 H 0.0 **** 0.06
34070 H 20.494250954200396 51.18649736514803 80.19761796920685 H 0.0 **** 0.06
34071 C 124.68271550191409 60.48232134058742 70.70940608522368 C 0.0 **** -0.24
34072 H 124.18926056453847 59.7401176878422 70.08301614644108 H 0.0 **** 0.06
34073 H 125.76190841085875 60.33013386228089 70.67166790610618 H 0.0 **** 0.06
34074 H 124.33731966691244 60.377898267867806 71.73837161301066 H 0.0 **** 0.06
34075 H 124.44365083781571 61.48138298448947 70.34512270545363 H 0.0 **** 0.06
34076 C 48.5016256573108 56.11727454543282 47.50313218286706 C 0.0 **** -0.24
34077 H 47.94524457511858 55.439316723196725 46.8558194626292 H 0.0 **** 0.06
34078 H 48.5440818680117 57.10440433816305 47.04289234418815 H 0.0 **** 0.06
34079 H 49.51344880270946 55.73704164873581 47.64191009717811 H 0.0 **** 0.06
34080 H 48.00323480418247 56.18653965101416 48.469554616268596 H 0.0 **** 0.06
34081 C 45.05698136743891 128.77988040595702 70.56391068802989 C 0.0 **** -0.24
34082 H 45.32307454654003 128.30503234082468 69.61986292879465 H 0.0 **** 0.06
34083 H 44.05561817102557 129.20440723375066 70.48712375759447 H 0.0 **** 0.06
34084 H 45.771864996043774 129.57218232118703 70.78538648431322 H 0.0 **** 0.06
34085 H 45.078066861767496 128.03823933786083 71.3617216523607 H 0.0 **** 0.06
34086 C 56.62248247756975 31.857701584405106 87.06726686599592 C 0.0 **** -0.24
34087 H 56.519519875512685 30.809134579465535 86.78882947362763 H 0.0 **** 0.06
34088 H 55.71243629570017 32.19147546634679 87.56720535418856 H 0.0 **** 0.06
34089 H 56.78542666937079 32.45717456429611 86.17055681644098 H 0.0 **** 0.06
34090 H 57.47173716064589 31.973626315014002 87.74074991559223 H 0.0 **** 0.06
34091 C 21.991094508547107 58.181117009832946 13.52955854997694 C 0.0 **** -0.24
34092 H 21.300719975598916 58.230371081615914 14.370920805438857 H 0.0 **** 0.06
34093 H 22.62455421519008 57.29874283870393 13.630197494107534 H 0.0 **** 0.06
34094 H 22.614104344075592 59.07606661815086 13.51791917263779 H 0.0 **** 0.06
34095 H 21.42739319930665 58.118821630394706 12.598965425334654 H 0.0 **** 0.06
34096 C 94.18462556385313 66.47737941385215 30.16230389035178 C 0.0 **** -0.24
34097 H 93.26854752011634 65.95356839787549 30.436339542898253 H 0.0 **** 0.06
34098 H 94.86430718094059 66.49034391041359 31.014708328337264 H 0.0 **** 0.06
34099 H 93.94508427440823 67.500821239829 29.87227748576612 H 0.0 **** 0.06
34100 H 94.65956998922839 65.96386652993696 29.325476033853732 H 0.0 **** 0.06
34101 C 109.21741894756283 78.17161891023943 23.414247865668784 C 0.0 **** -0.24
34102 H 109.75683450913229 77.26120350126192 23.15485231975572 H 0.0 **** 0.06
34103 H 108.30095912041068 77.91197957457956 23.94404524610377 H 0.0 **** 0.06
34104 H 108.96881609957674 78.71895897833039 22.504687545486746 H 0.0 **** 0.06
34105 H 109.84228552047202 78.79495640183337 24.053352373146794 H 0.0 **** 0.06
34106 C 79.21480101877934 37.71434983914364 75.22844096461006 C 0.0 **** -0.24
34107 H 78.4220331942168 38.45818487472076 75.14234714184698 H 0.0 **** 0.06
34108 H 79.61312571135386 37.493188016547066 74.23856959973267 H 0.0 **** 0.06
34109 H 78.81057101456649 36.80400148118662 75.67123261538109 H 0.0 **** 0.06
34110 H 80.01114560229063 38.10410609803188 75.86211186125973 H 0.0 **** 0.06
34111 C 91.28001380481857 43.96804441592923 37.200380593043974 C 0.0 **** -0.24
34112 H 90.3132006230037 43.5136256612075 37.41195379112031 H 0.0 **** 0.06
34113 H 91.70911164847868 43.50992246064115 36.30847708813474 H 0.0 **** 0.06
34114 H 91.94833950047737 43.81229973204171 38.04726301044349 H 0.0 **** 0.06
34115 H 91.15068570393493 45.03718309254708 37.03303608459396 H 0.0 **** 0.06
34116 C 60.454892185985756 96.83909117973701 98.58909821277942 C 0.0 **** -0.24
34117 H 59.81008088505135 96.98770411032726 99.45558138279449 H 0.0 **** 0.06
34118 H 60.14566931884721 97.50879424482225 97.7870848398191 H 0.0 **** 0.06
34119 H 60.377616087268194 95.8059846727396 98.25125241768919 H 0.0 **** 0.06
34120 H 61.48853514295001 97.0545709294755 98.86472901067313 H 0.0 **** 0.06
34121 C 15.434548256984101 108.38636308584165 7.410533065532473 C 0.0 **** -0.24
34122 H 15.686002318209944 109.35065368956816 6.968371348822526 H 0.0 **** 0.06
34123 H 15.923529915440383 108.2941466088185 8.380963175345144 H 0.0 **** 0.06
34124 H 15.77662189634907 107.58612054799215 6.7537248633033045 H 0.0 **** 0.06
34125 H 14.354391542348651 108.31602233046175 7.537957983019833 H 0.0 **** 0.06
34126 C 59.79902437664008 9.785107512193633 19.577042756675525 C 0.0 **** -0.24
34127 H 60.693488328695636 9.161541491225364 19.57039650007966 H 0.0 **** 0.06
34128 H 60.07036840777306 10.806583589740683 19.84634294449554 H 0.0 **** 0.06
34129 H 59.088524334212906 9.394037009563874 20.30418643629389 H 0.0 **** 0.06
34130 H 59.34492112841285 9.778718057981337 18.585415827416263 H 0.0 **** 0.06
34131 C 67.9938952537114 109.10389727485423 52.581091208310994 C 0.0 **** -0.24
34132 H 67.4403973442544 109.42496963519184 53.46397915141492 H 0.0 **** 0.06
34133 H 67.82225014801378 109.81003461664258 51.76842122271816 H 0.0 **** 0.06
34134 H 67.65425457079706 108.11306642960105 52.279995055694286 H 0.0 **** 0.06
34135 H 69.05843782734173 109.06877468794161 52.81380350388784 H 0.0 **** 0.06
34136 C 124.63077690141162 115.525242778256 32.44445285976656 C 0.0 **** -0.24
34137 H 123.89823268095734 115.26626937435248 31.680520817755905 H 0.0 **** 0.06
34138 H 124.44425865507336 114.93289558057296 33.341547248196235 H 0.0 **** 0.06
34139 H 124.54662867744264 116.58511595384576 32.68464111451513 H 0.0 **** 0.06
34140 H 125.63316347632637 115.31496255504032 32.072258260768706 H 0.0 **** 0.06
34141 C 67.22423710129762 121.74103355761966 119.54269615039902 C 0.0 **** -0.24
34142 H 68.00376830288117 122.2066853795545 120.14644361995488 H 0.0 **** 0.06
34143 H 66.34297053097724 122.38248057707307 119.53181366116712 H 0.0 **** 0.06
34144 H 66.9645434089246 120.77311880985135 119.96957740874268 H 0.0 **** 0.06
34145 H 67.58778345347899 121.60411417724765 118.52449549376189 H 0.0 **** 0.06
34146 C 16.105507492379378 11.369756865588954 61.02264846761808 C 0.0 **** -0.24
34147 H 16.824643052651133 10.727294452582328 60.51538274356278 H 0.0 **** 0.06
34148 H 16.424907310329647 11.531560377136657 62.05240517537857 H 0.0 **** 0.06
34149 H 15.125948411555417 10.891640294350054 61.017547074684884 H 0.0 **** 0.06
34150 H 16.045352235911118 12.32663241700567 60.505284063797944 H 0.0 **** 0.06
34151 C 122.71625537831665 9.065957092084204 107.16609720104927 C 0.0 **** -0.24
34152 H 122.83870973725305 10.104093772534327 106.857029829215 H 0.0 **** 0.06
34153 H 123.1551585072699 8.928359617393227 108.15540482300935 H 0.0 **** 0.06
34154 H 123.21695225363959 8.412948060212557 106.45201999746907 H 0.0 **** 0.06
34155 H 121.65534379419904 8.820581845542534 107.20277160536001 H 0.0 **** 0.06
34156 C 24.479942144560454 110.02799669063108 114.61357243405786 C 0.0 **** -0.24
34157 H 25.364395033491746 110.35821832806965 115.15804025429446 H 0.0 **** 0.06
34158 H 24.333492291012277 108.95918676463958 114.77262685237349 H 0.0 **** 0.06
34159 H 24.614438236618184 110.22327510764262 113.55029611216384 H 0.0 **** 0.06
34160 H 23.607395710329996 110.57280787748186 114.97610938892058 H 0.0 **** 0.06
34161 C 109.2280990620751 123.61548725753363 104.00198568858188 C 0.0 **** -0.24
34162 H 109.57381503151461 124.59679489265164 104.3268599091474 H 0.0 **** 0.06
34163 H 108.41508102965436 123.28515070898203 104.64890372237741 H 0.0 **** 0.06
34164 H 110.05061168220983 122.90293545483738 104.05876026954684 H 0.0 **** 0.06
34165 H 108.87185297586234 123.67845362960043 102.97333050712835 H 0.0 **** 0.06
34166 C 121.4549535648291 61.29146440944773 21.989638865287056 C 0.0 **** -0.24
34167 H 121.91853250958424 61.965711522632816 21.269137725891838 H 0.0 **** 0.06
34168 H 121.7209941100537 60.2620405763838 21.747158894633806 H 0.0 **** 0.06
34169 H 120.3717640777879 61.40702480060936 21.94832524472065 H 0.0 **** 0.06
34170 H 121.8081240703914 61.532142514776 22.992006599089287 H 0.0 **** 0.06
34171 C 115.32456634684068 123.15310729441254 129.57814727224257 C 0.0 **** -0.24
34172 H 115.90108406904902 123.17679980072677 128.65317728720996 H 0.0 **** 0.06
34173 H 114.29124656327444 122.8899338695357 129.35555491716502 H 0.0 **** 0.06
34174 H 115.35689023266741 124.13546657001908 130.05039820685658 H 0.0 **** 0.06
34175 H 115.75227877686771 122.41209796330088 130.25367575654758 H 0.0 **** 0.06
34176 C 69.44251642508664 30.5649433895901 42.97155901884588 C 0.0 **** -0.24
34177 H 69.22950146644823 30.489385603101482 41.90494936501574 H 0.0 **** 0.06
34178 H 69.12894124649996 29.647126360337978 43.46984209928314 H 0.0 **** 0.06
34179 H 68.8988661400853 31.410118619456682 43.39166325692145 H 0.0 **** 0.06
34180 H 70.51222292728816 30.71148789941762 43.118375675525385 H 0.0 **** 0.06
34181 C 120.44382475931187 67.18148960964994 18.894021405205848 C 0.0 **** -0.24
34182 H 121.2283644818736 67.77374686323344 18.421922583480665 H 0.0 **** 0.06
34183 H 120.88813499038898 66.51233821205203 19.630683662268666 H 0.0 **** 0.06
34184 H 119.9254278303321 66.59547459112602 18.135090253502 H 0.0 **** 0.06
34185 H 119.7352126072636 67.84649979824778 19.387294872482244 H 0.0 **** 0.06
34186 C 27.687258926943286 33.7110929021396 91.71121611115456 C 0.0 **** -0.24
34187 H 28.753494422912638 33.86665552475401 91.87918537213727 H 0.0 **** 0.06
34188 H 27.538541639410937 32.78359991453354 91.15866713431114 H 0.0 **** 0.06
34189 H 27.28528967900536 34.54575605858324 91.13770276703963 H 0.0 **** 0.06
34190 H 27.17445469862264 33.64880276616523 92.67111779404235 H 0.0 **** 0.06
34191 C 17.369752565835967 58.97061438695263 126.12931082214556 C 0.0 **** -0.24
34192 H 18.256300383347735 59.249412782644214 126.70023811896392 H 0.0 **** 0.06
34193 H 17.566211804728198 59.1065196098086 125.06557681632286 H 0.0 **** 0.06
34194 H 16.531936162582497 59.59920979033055 126.4285095491398 H 0.0 **** 0.06
34195 H 17.12697330405578 57.925607218852036 126.32343642548949 H 0.0 **** 0.06
34196 C 31.896723883418304 103.55175809528885 32.497762155281606 C 0.0 **** -0.24
34197 H 30.87309903500561 103.55903451322541 32.87163200857324 H 0.0 **** 0.06
34198 H 32.57699209770814 103.28157589526455 33.30549305731705 H 0.0 **** 0.06
34199 H 32.15346773007742 104.54287589196059 32.122801329945275 H 0.0 **** 0.06
34200 H 31.984078360037266 102.82481795429908 31.690209864285308 H 0.0 **** 0.06
34201 C 22.680344399494288 23.261782540648653 0.01663416786260541 C 0.0 **** -0.24
34202 H 21.762962634716985 22.675073617650867 -0.03558490579115414 H 0.0 **** 0.06
34203 H 22.845665513187953 23.586764382530475 1.0438226603581313 H 0.0 **** 0.06
34204 H 22.59055603008011 24.134272071561156 -0.6302758100111134 H 0.0 **** 0.06
34205 H 23.521485636372148 22.65031626610528 -0.31136420738485526 H 0.0 **** 0.06
34206 C 34.51738113544297 36.8551194778876 10.559608054994136 C 0.0 **** -0.24
34207 H 33.97044984622175 36.43099050385973 11.402118167285995 H 0.0 **** 0.06
34208 H 35.08501104101112 37.72288570715574 10.896346172740369 H 0.0 **** 0.06
34209 H 33.81325382369214 37.15928022041936 9.785205423322079 H 0.0 **** 0.06
34210 H 35.200703708624395 36.10795315952055 10.157126786321559 H 0.0 **** 0.06
34211 C 69.35453705461507 127.19062183674824 116.94822146354085 C 0.0 **** -0.24
34212 H 70.00873390254712 128.0620906087421 116.9592261204645 H 0.0 **** 0.06
34213 H 69.25968800635097 126.7957239386733 117.96097756369068 H 0.0 **** 0.06
34214 H 69.77825160269124 126.42554359352077 116.29775876183248 H 0.0 **** 0.06
34215 H 68.37027332294241 127.47951127293516 116.5776457610367 H 0.0 **** 0.06
34216 C 47.062370599409235 85.44626043104923 109.15254159118905 C 0.0 **** -0.24
34217 H 47.1231574301334 84.8892248124378 110.087917342276 H 0.0 **** 0.06
34218 H 46.75007875975922 86.47009773267968 109.35879014948205 H 0.0 **** 0.06
34219 H 46.337175647193874 84.96956419716012 108.49283600090632 H 0.0 **** 0.06
34220 H 48.04084887851974 85.45480790061012 108.67077530860831 H 0.0 **** 0.06
34221 C 28.422968261654923 29.042428388180753 3.6261604348398606 C 0.0 **** -0.24
34222 H 28.008045717567548 30.03565304532821 3.4567718569863644 H 0.0 **** 0.06
34223 H 29.27690878228568 28.88848059184896 2.966258814400959 H 0.0 **** 0.06
34224 H 27.661293700296333 28.291069580959316 3.416464687957699 H 0.0 **** 0.06
34225 H 28.743627339926974 28.95456596671893 4.664142810175335 H 0.0 **** 0.06
34226 C 29.36032329923148 123.82499507531685 40.49533398153358 C 0.0 **** -0.24
34227 H 29.968203812401924 124.51154034707986 39.905559978705526 H 0.0 **** 0.06
34228 H 29.141516065643714 122.9348270444379 39.90420046770481 H 0.0 **** 0.06
34229 H 28.427293994864442 124.31444126774397 40.77382668660161 H 0.0 **** 0.06
34230 H 29.90424081261085 123.53877257804203 41.39554889663165 H 0.0 **** 0.06
34231 C 61.499273223384904 13.397940951700512 55.124021677157046 C 0.0 **** -0.24
34232 H 62.076513999373645 13.208858148471005 54.21945647824903 H 0.0 **** 0.06
34233 H 62.063776301983125 14.057509530821392 55.783732279360166 H 0.0 **** 0.06
34234 H 61.302806626071884 12.454828600166632 55.632678108184834 H 0.0 **** 0.06
34235 H 60.55442676562858 13.87168922889192 54.8589722991441 H 0.0 **** 0.06
34236 C 97.30491517799275 65.09462165136506 27.62473938424577 C 0.0 **** -0.24
34237 H 97.42010439875568 64.27191603669098 28.329536741447157 H 0.0 **** 0.06
34238 H 98.28218530133805 65.52364598161967 27.40444713685551 H 0.0 **** 0.06
34239 H 96.66190910058135 65.85909948557281 28.060184284441675 H 0.0 **** 0.06
34240 H 96.85464436292273 64.723600356411 26.703657466041733 H 0.0 **** 0.06
34241 C 84.56505416979694 27.034179915214622 25.40962161667835 C 0.0 **** -0.24
34242 H 85.5928846121428 26.760686229773796 25.170974889985644 H 0.0 **** 0.06
34243 H 84.27421364373394 26.563635978229627 26.349446455020626 H 0.0 **** 0.06
34244 H 83.90396925789808 26.69384274492927 24.612321896095636 H 0.0 **** 0.06
34245 H 84.49026072322698 28.117425933617255 25.506443565267944 H 0.0 **** 0.06
34246 C 117.9037000539306 107.2604994446524 79.99497003302156 C 0.0 **** -0.24
34247 H 118.53974233790456 106.5148947808446 79.51909368079646 H 0.0 **** 0.06
34248 H 117.4294817631266 106.82521285875154 80.87509566011332 H 0.0 **** 0.06
34249 H 117.13613996626822 107.58671934130393 79.29198165952567 H 0.0 **** 0.06
34250 H 118.5086031344905 108.11747251878504 80.29361691682931 H 0.0 **** 0.06
34251 C 86.61175890947725 127.97611533330068 87.75739603793336 C 0.0 **** -0.24
34252 H 87.51977479557193 127.47276563392181 88.08787091213502 H 0.0 **** 0.06
34253 H 86.48840823479388 128.90547742690833 88.31253757324306 H 0.0 **** 0.06
34254 H 85.7523113583844 127.32833532722694 87.9352795433933 H 0.0 **** 0.06
34255 H 86.6859019666427 128.19566567977085 86.69173380670078 H 0.0 **** 0.06
34256 C 116.44226666345367 64.7507153992384 73.63320639453369 C 0.0 **** -0.24
34257 H 115.62565237498666 64.48680454439352 74.30572678289829 H 0.0 **** 0.06
34258 H 116.13482083492886 64.57413962616093 72.6017178506012 H 0.0 **** 0.06
34259 H 117.31416594547727 64.13803765452963 73.86253170214789 H 0.0 **** 0.06
34260 H 116.69373133993139 65.8033140482562 73.76329125617295 H 0.0 **** 0.06
34261 C 101.8591282265175 123.61670320827301 128.81325902100508 C 0.0 **** -0.24
34262 H 101.57219384867 122.73610003532258 128.23884091152348 H 0.0 **** 0.06
34263 H 102.86527269551453 123.9239853846756 128.52792335069998 H 0.0 **** 0.06
34264 H 101.83861472436172 123.37855232599331 129.87664221297658 H 0.0 **** 0.06
34265 H 101.15924487590638 124.42745505486072 128.60935893866125 H 0.0 **** 0.06
34266 C 118.80253164217514 54.63944098591563 82.68095104236572 C 0.0 **** -0.24
34267 H 118.31109578514965 55.01306754211791 83.5796064253194 H 0.0 **** 0.06
34268 H 118.13022168288414 54.74702734584238 81.82860599874358 H 0.0 **** 0.06
34269 H 119.05363566521494 53.587372378594836 82.81562799373413 H 0.0 **** 0.06
34270 H 119.71307602383989 55.210576827130666 82.50068670411244 H 0.0 **** 0.06
34271 C 72.35864542569749 65.71839202724996 58.24202033336087 C 0.0 **** -0.24
34272 H 72.268122008891 64.6354560577212 58.3277622566866 H 0.0 **** 0.06
34273 H 71.41390057735026 66.13430599806125 57.89035533480563 H 0.0 **** 0.06
34274 H 73.1496213826428 65.96215390766892 57.53179802462519 H 0.0 **** 0.06
34275 H 72.60186696955378 66.14085350484089 59.21637241967427 H 0.0 **** 0.06
34276 C 15.396705292028912 95.0891374124555 118.0156835334335 C 0.0 **** -0.24
34277 H 14.846705467853639 94.95192363715815 118.94656055502713 H 0.0 **** 0.06
34278 H 15.109144834541695 96.03698149525299 117.56044287056369 H 0.0 **** 0.06
34279 H 15.164767148775638 94.27173554429574 117.33226682053413 H 0.0 **** 0.06
34280 H 16.467219120533912 95.09504998795491 118.22394473264023 H 0.0 **** 0.06
34281 C 4.546270618573715 23.521090799251567 51.16400254826249 C 0.0 **** -0.24
34282 H 4.228522505299011 22.842337561530513 50.372473867038565 H 0.0 **** 0.06
34283 H 3.6701581555290943 23.90402755853293 51.6877380569681 H 0.0 **** 0.06
34284 H 5.10097532573036 24.352064662595154 50.72823128205454 H 0.0 **** 0.06
34285 H 5.185377865182389 22.986964371744847 51.866600097858424 H 0.0 **** 0.06
34286 C 25.973444721474408 128.08768177744983 28.691750705209586 C 0.0 **** -0.24
34287 H 25.327159295624853 128.49183592261576 29.471018987069726 H 0.0 **** 0.06
34288 H 25.75915739374176 128.58761162313667 27.74746921781866 H 0.0 **** 0.06
34289 H 25.789751004832453 127.01838729570463 28.587317013532697 H 0.0 **** 0.06
34290 H 27.015826055329086 128.25276084284766 28.963733257697413 H 0.0 **** 0.06
34291 C 96.1837369847039 16.13368726382265 101.36890795133655 C 0.0 **** -0.24
34292 H 97.20759458423063 15.821270531261575 101.16058383593474 H 0.0 **** 0.06
34293 H 95.8863274324506 16.90103841506169 100.65371827280268 H 0.0 **** 0.06
34294 H 96.12668987413701 16.537162860345177 102.37929722010045 H 0.0 **** 0.06
34295 H 95.51734746375078 15.27583930816354 101.28124760472053 H 0.0 **** 0.06
34296 C 8.930253693932599 55.29400232208668 5.310656293098074 C 0.0 **** -0.24
34297 H 8.124968496526037 55.57639729580653 4.6319955980706204 H 0.0 **** 0.06
34298 H 9.19122438987722 54.24771203274581 5.146975259158349 H 0.0 **** 0.06
34299 H 8.600264476997978 55.429832554849455 6.340878486454226 H 0.0 **** 0.06
34300 H 9.801583293322466 55.920356738008664 5.121282839072567 H 0.0 **** 0.06
34301 C 48.442872229571535 21.26639630014097 89.45093993423987 C 0.0 **** -0.24
34302 H 48.725322039050084 20.374775455115923 90.01124242145087 H 0.0 **** 0.06
34303 H 48.072211772602316 20.974302016435956 88.46759700702606 H 0.0 **** 0.06
34304 H 49.312288518753036 21.912204584844346 89.33501603922139 H 0.0 **** 0.06
34305 H 47.66124033339479 21.80072284799462 89.98988160283994 H 0.0 **** 0.06
34306 C 80.02946382029029 94.72012121892678 74.03562622887621 C 0.0 **** -0.24
34307 H 79.84054998390238 94.37322642404672 73.01898316641945 H 0.0 **** 0.06
34308 H 80.3860073170592 95.74976142017695 74.00742588963963 H 0.0 **** 0.06
34309 H 80.78520275351705 94.08623068122421 74.49990410214406 H 0.0 **** 0.06
34310 H 79.10736255816441 94.66965350787547 74.61340011231171 H 0.0 **** 0.06
34311 C 52.71180981457118 45.31597677268224 4.509537250151226 C 0.0 **** -0.24
34312 H 53.26295400130542 45.692299316520455 5.372229537578136 H 0.0 **** 0.06
34313 H 51.81747797204784 45.921110477098765 4.3581428264101305 H 0.0 **** 0.06
34314 H 52.42503913039829 44.27992540814644 4.685288569715709 H 0.0 **** 0.06
34315 H 53.3437310160397 45.37279482641693 3.6229421894920506 H 0.0 **** 0.06
34316 C 45.58992031118055 28.64524319372262 127.27347514146288 C 0.0 **** -0.24
34317 H 44.62468021161661 29.044369837582394 126.95992927705333 H 0.0 **** 0.06
34318 H 45.78157228992373 28.92959715912346 128.30841854292623 H 0.0 **** 0.06
34319 H 46.374148599542366 29.048866627181695 126.6334168962544 H 0.0 **** 0.06
34320 H 45.576137220902126 27.559073822787866 127.19163680977562 H 0.0 **** 0.06
34321 C 123.96242307349742 58.64690630075779 54.08076199633285 C 0.0 **** -0.24
34322 H 124.3922994093551 59.606087581219725 53.794798725039584 H 0.0 **** 0.06
34323 H 123.75655876958345 58.059692315457085 53.18587536160376 H 0.0 **** 0.06
34324 H 123.03463329949935 58.81351130767649 54.62813881398435 H 0.0 **** 0.06
34325 H 124.66646593354486 58.10777942159237 54.71585444400739 H 0.0 **** 0.06
34326 C 7.789493649380759 40.19894384099473 91.07715327812213 C 0.0 **** -0.24
34327 H 7.1539571648443925 40.662697269183525 91.83238415273837 H 0.0 **** 0.06
34328 H 7.492355987453589 40.54852352542801 90.08844668862764 H 0.0 **** 0.06
34329 H 7.681217648799134 39.11625600146756 91.12765802176597 H 0.0 **** 0.06
34330 H 8.828277422562618 40.470955923733726 91.261240498252 H 0.0 **** 0.06
34331 C 66.95779625553035 5.4333436312439645 16.25730711101754 C 0.0 **** -0.24
34332 H 67.80042811800651 4.744111331596066 16.20071328958595 H 0.0 **** 0.06
34333 H 66.97062653481807 6.0946759784841085 15.391130245444344 H 0.0 **** 0.06
34334 H 67.03267520662942 6.02447333663034 17.169453604184397 H 0.0 **** 0.06
34335 H 66.0265811786128 4.866515422537951 16.267394600525762 H 0.0 **** 0.06
34336 C 77.62176821458183 118.76533875318705 117.68264472930927 C 0.0 **** -0.24
34337 H 77.71681261346737 119.83222119774254 117.88217122960943 H 0.0 **** 0.06
34338 H 76.91637507989174 118.60999504935239 116.86616671823424 H 0.0 **** 0.06
34339 H 77.25852316210131 118.25977704034558 118.57823109622359 H 0.0 **** 0.06
34340 H 78.59525668191952 118.35925877412967 117.4064549998022 H 0.0 **** 0.06
34341 C 16.88509000916791 79.49543880651635 79.7552671371784 C 0.0 **** -0.24
34342 H 16.11395909840681 79.9143972897295 80.40070365784646 H 0.0 **** 0.06
34343 H 16.48537864495883 79.3627476208311 78.7499849197301 H 0.0 **** 0.06
34344 H 17.204428796977368 78.53055099214066 80.14946978751261 H 0.0 **** 0.06
34345 H 17.737715028511687 80.17328579733748 79.72128957121834 H 0.0 **** 0.06
34346 C 55.46786672997011 64.10144645498579 92.24738916016292 C 0.0 **** -0.24
34347 H 55.41670529458342 64.50994080119793 91.23851339860431 H 0.0 **** 0.06
34348 H 56.38317981441281 64.44285954700538 92.73214435344005 H 0.0 **** 0.06
34349 H 55.46652607371544 63.01315732073684 92.19941674326162 H 0.0 **** 0.06
34350 H 54.60475457828687 64.44168079488676 92.82069758506634 H 0.0 **** 0.06
34351 C 8.580776400295491 109.5166588584538 49.4409408028114 C 0.0 **** -0.24
34352 H 9.489408981813142 109.12337246997548 48.985417915873185 H 0.0 **** 0.06
34353 H 8.3863115026721 108.99040540897097 50.37548945444813 H 0.0 **** 0.06
34354 H 7.74126152351343 109.37008688146085 48.760176536176644 H 0.0 **** 0.06
34355 H 8.70521132906967 110.58091396207858 49.640506541352806 H 0.0 **** 0.06
34356 C 28.0361865270024 71.44306840431074 42.450189361064844 C 0.0 **** -0.24
34357 H 27.785899143717387 72.22361860606458 41.731303339944176 H 0.0 **** 0.06
34358 H 28.485461954666192 70.5982713911987 41.92730494443107 H 0.0 **** 0.06
34359 H 27.130626573223907 71.11505457145205 42.960714164035736 H 0.0 **** 0.06
34360 H 28.74367638386724 71.83619544408168 43.18079715331821 H 0.0 **** 0.06
34361 C 83.9227533144514 41.44099588668943 100.12942818696307 C 0.0 **** -0.24
34362 H 83.3509272033249 41.816715562545554 100.9780824794272 H 0.0 **** 0.06
34363 H 83.82397649503979 40.35638649728771 100.07721588545449 H 0.0 **** 0.06
34364 H 84.97270849358665 41.70561102345984 100.25288423812123 H 0.0 **** 0.06
34365 H 83.5412776008084 41.88572684546013 99.21006202022876 H 0.0 **** 0.06
34366 C 114.01045875352065 18.106325149827967 121.17561284624875 C 0.0 **** -0.24
34367 H 114.49566296475814 17.340174566872605 121.78143930808938 H 0.0 **** 0.06
34368 H 113.07770900698881 18.408947511340145 121.65219035446037 H 0.0 **** 0.06
34369 H 113.79934509794026 17.704808954427364 120.18428481677671 H 0.0 **** 0.06
34370 H 114.66932321305649 18.969161167494292 121.08482171717654 H 0.0 **** 0.06
34371 C 92.82553490386142 126.3253764325579 57.088202286264604 C 0.0 **** -0.24
34372 H 91.90234330502922 126.11178386337616 57.626985137574906 H 0.0 **** 0.06
34373 H 93.08239618841057 125.47507735201373 56.45552520520255 H 0.0 **** 0.06
34374 H 93.62977721302555 126.50259290713535 57.80212391176548 H 0.0 **** 0.06
34375 H 92.68761558959635 127.2120299968654 56.46917465816193 H 0.0 **** 0.06
34376 C 18.485792297674408 98.05364949401161 53.251367724126254 C 0.0 **** -0.24
34377 H 17.87858237911513 98.9369494043562 53.05159561990094 H 0.0 **** 0.06
34378 H 19.38279712674131 98.34683996520869 53.79812565349613 H 0.0 **** 0.06
34379 H 18.770099829669277 97.58632073713761 52.308480382547955 H 0.0 **** 0.06
34380 H 17.91148030065027 97.34561973797196 53.84918633212203 H 0.0 **** 0.06
34381 C 38.34175824575448 70.7335999749003 47.056872324368044 C 0.0 **** -0.24
34382 H 37.87000068912164 71.70537001411356 47.204734776777 H 0.0 **** 0.06
34383 H 38.87892354709999 70.73130760032768 46.10838476089464 H 0.0 **** 0.06
34384 H 37.57556296557796 69.95765728840286 47.04307818161135 H 0.0 **** 0.06
34385 H 39.03936474480308 70.54085148197987 47.87077868077182 H 0.0 **** 0.06
34386 C 128.52001190447126 106.23839577422453 94.84630752629957 C 0.0 **** -0.24
34387 H 127.91932801081143 105.39558280992544 94.50204494549466 H 0.0 **** 0.06
34388 H 129.06580485666186 106.66284904828449 94.00329508528431 H 0.0 **** 0.06
34389 H 129.22604113081624 105.89593163346784 95.60185860356242 H 0.0 **** 0.06
34390 H 127.86721918081523 106.9976863004919 95.27559992312489 H 0.0 **** 0.06
34391 C 94.85761435118349 12.10941054681021 9.790669066844828 C 0.0 **** -0.24
34392 H 95.79287993764996 11.553161182708749 9.732031470009758 H 0.0 **** 0.06
34393 H 94.92923424420438 12.85834980238721 10.579374367726643 H 0.0 **** 0.06
34394 H 94.04011948170789 11.423605607245037 10.013869004199876 H 0.0 **** 0.06
34395 H 94.6681525750301 12.602205278485343 8.836456762156502 H 0.0 **** 0.06
34396 C 4.1703913175949765 126.29803210914544 124.95314436550345 C 0.0 **** -0.24
34397 H 3.174402027433132 125.89384433424975 125.13124823729233 H 0.0 **** 0.06
34398 H 4.297279986936644 127.21702705754804 125.52622644905902 H 0.0 **** 0.06
34399 H 4.292521452934579 126.51126942821355 123.89189299864833 H 0.0 **** 0.06
34400 H 4.918600012069589 125.56905854629741 125.26577963507569 H 0.0 **** 0.06
34401 C 86.03397379336865 27.408620056294062 71.28492351906041 C 0.0 **** -0.24
34402 H 86.25169483999692 28.172874179585335 72.0312677249741 H 0.0 **** 0.06
34403 H 85.84632433325027 26.457913972352173 71.78419609422593 H 0.0 **** 0.06
34404 H 86.8850910571993 27.30594356995619 70.61201907418922 H 0.0 **** 0.06
34405 H 85.15184546138516 27.69911154150173 70.71371443958412 H 0.0 **** 0.06
34406 C 116.79903811976854 63.35002143412552 58.44454480663448 C 0.0 **** -0.24
34407 H 116.90807337975957 62.3045953403973 58.73373865688944 H 0.0 **** 0.06
34408 H 117.08156904828184 63.98932921921528 59.281685995109584 H 0.0 **** 0.06
34409 H 115.76274324430122 63.54461252484501 58.171320330678284 H 0.0 **** 0.06
34410 H 117.44599941389178 63.55964189632118 57.592050889156724 H 0.0 **** 0.06
34411 C 72.90087818290971 100.73117823916203 122.88089626241006 C 0.0 **** -0.24
34412 H 72.94487023714208 99.95576808376916 123.64668497028383 H 0.0 **** 0.06
34413 H 72.22621125727511 101.52275797003568 123.20462369904287 H 0.0 **** 0.06
34414 H 72.53563576874399 100.29998531666354 121.94887581954332 H 0.0 **** 0.06
34415 H 73.89722534119954 101.1434234117093 122.72371265634598 H 0.0 **** 0.06
34416 C 73.29061090102212 128.9038359726155 43.90716936702367 C 0.0 **** -0.24
34417 H 74.26587230269197 129.26939213232274 43.58545152255093 H 0.0 **** 0.06
34418 H 73.12283059874667 127.90788799108803 43.49476304797461 H 0.0 **** 0.06
34419 H 72.51411511472057 129.580185784621 43.55108279834429 H 0.0 **** 0.06
34420 H 73.26145883833343 128.85644294771177 44.99577376305036 H 0.0 **** 0.06
34421 C 35.839297003220565 91.92622198687337 52.811803040171256 C 0.0 **** -0.24
34422 H 35.5088927591309 90.88748405175807 52.78458078745889 H 0.0 **** 0.06
34423 H 36.32657369757487 92.12687946228164 53.76551915314111 H 0.0 **** 0.06
34424 H 34.978598915634905 92.58381294049978 52.69626376543275 H 0.0 **** 0.06
34425 H 36.5435704693399 92.10345026675893 51.99836555227594 H 0.0 **** 0.06
34426 C 112.14381493244656 73.90717787628971 62.16881552474207 C 0.0 **** -0.24
34427 H 111.60922871962077 73.04917002679302 61.76053668420991 H 0.0 **** 0.06
34428 H 113.08450747961406 73.57307359940393 62.60749351810573 H 0.0 **** 0.06
34429 H 111.53436269543818 74.38374272625951 62.936725930651235 H 0.0 **** 0.06
34430 H 112.34801006240038 74.62073901534693 61.371084197067276 H 0.0 **** 0.06
34431 C 10.74355293550883 3.680170859974762 77.07819489391532 C 0.0 **** -0.24
34432 H 11.668088834531005 3.1032075477787266 77.118781153606 H 0.0 **** 0.06
34433 H 10.873018728369004 4.613128901487336 77.6263265787668 H 0.0 **** 0.06
34434 H 9.935753977990032 3.1030394161089774 77.52744379326631 H 0.0 **** 0.06
34435 H 10.499521700664928 3.900020947140032 76.03860642017739 H 0.0 **** 0.06
34436 C 37.703020352726696 51.271434706219054 81.74837668542986 C 0.0 **** -0.24
34437 H 38.155334546245484 52.14557341985076 81.28086860766777 H 0.0 **** 0.06
34438 H 37.62974895918947 51.43086989763904 82.82429174150386 H 0.0 **** 0.06
34439 H 38.31958811389907 50.39512327015271 81.55169710471768 H 0.0 **** 0.06
34440 H 36.70614862305422 51.11429434455104 81.33602107156929 H 0.0 **** 0.06
34441 C 19.972959631409907 87.9481235252739 92.64175522408077 C 0.0 **** -0.24
34442 H 18.98208595378157 88.4006330430401 92.67922461428034 H 0.0 **** 0.06
34443 H 20.37001669861133 87.85947446140915 93.65286871184564 H 0.0 **** 0.06
34444 H 20.63554124399913 88.57491671980753 92.04461923676672 H 0.0 **** 0.06
34445 H 19.903848518782702 86.95912046112758 92.18991343230432 H 0.0 **** 0.06
34446 C 119.44012019485606 117.11389499562614 53.352124372673984 C 0.0 **** -0.24
34447 H 120.06507662657992 117.60270081144611 54.099180444262146 H 0.0 **** 0.06
34448 H 118.97754782104704 116.22894764360247 53.79014092596677 H 0.0 **** 0.06
34449 H 120.05410350650763 116.82073224823259 52.50111290836685 H 0.0 **** 0.06
34450 H 118.66377570915336 117.80278301655163 53.02047703425848 H 0.0 **** 0.06
34451 C 37.73916648005543 95.11106352309014 11.191362665732822 C 0.0 **** -0.24
34452 H 38.04668561533722 95.64318006248936 12.092142603642145 H 0.0 **** 0.06
34453 H 38.16983271928121 95.5992926013214 10.316349805966546 H 0.0 **** 0.06
34454 H 36.65249156626 95.12304122687584 11.11579442872474 H 0.0 **** 0.06
34455 H 38.08906144336691 94.0795061993166 11.241825790437328 H 0.0 **** 0.06
34456 C 64.21187682835202 119.76121961609778 19.98874979355338 C 0.0 **** -0.24
34457 H 63.20940858381638 119.62774647934603 19.583999592862284 H 0.0 **** 0.06
34458 H 64.15718761920661 120.33710663296293 20.913337151224454 H 0.0 **** 0.06
34459 H 64.82805857561894 120.29399994999952 19.26439101024559 H 0.0 **** 0.06
34460 H 64.65419052311302 118.78590478091988 20.193713403610587 H 0.0 **** 0.06
34461 C 56.01289898112685 82.71355302975346 105.91569108042277 C 0.0 **** -0.24
34462 H 56.99013825966131 83.05839884432811 105.57856618304294 H 0.0 **** 0.06
34463 H 55.717081750636396 83.27135956387954 106.80482806021442 H 0.0 **** 0.06
34464 H 56.06431974944297 81.65071448237467 106.15441615488125 H 0.0 **** 0.06
34465 H 55.2788987501701 82.87369138784001 105.12576522782854 H 0.0 **** 0.06
34466 C 124.44488578053041 51.18484448354724 25.307051246636966 C 0.0 **** -0.24
34467 H 124.24121046320937 50.165038943781084 24.979225769273377 H 0.0 **** 0.06
34468 H 124.93759051358266 51.73339734646028 24.503224544200037 H 0.0 **** 0.06
34469 H 125.09382306591395 51.162519383840035 26.18299274203345 H 0.0 **** 0.06
34470 H 123.50691907941567 51.67842226010731 25.562761931041095 H 0.0 **** 0.06
34471 C 91.41885031594168 105.6995515219281 119.27752343203349 C 0.0 **** -0.24
34472 H 90.69330641638521 105.50306062797682 120.06792392579902 H 0.0 **** 0.06
34473 H 90.8987296811353 105.79043166544818 118.32309801090794 H 0.0 **** 0.06
34474 H 92.13165858252238 104.87765071214913 119.22592109067413 H 0.0 **** 0.06
34475 H 91.9480658652301 106.6277360439092 119.49369206439451 H 0.0 **** 0.06
34476 C 30.652026683443722 3.298571553717352 10.11635970447685 C 0.0 **** -0.24
34477 H 30.23517323168096 2.505140051670935 10.737507978402093 H 0.0 **** 0.06
34478 H 31.727416228798518 3.364172807351906 10.286360758644719 H 0.0 **** 0.06
34479 H 30.18358649554733 4.24752598471099 10.377916127564745 H 0.0 **** 0.06
34480 H 30.461724977020623 3.0760574671575682 9.06697457678115 H 0.0 **** 0.06
34481 C 96.39392263988898 1.8902817241544767 30.523801058537344 C 0.0 **** -0.24
34482 H 97.23203881799068 1.5302748245308635 29.92605124164828 H 0.0 **** 0.06
34483 H 95.50821749965351 1.295451539449914 30.301407474635027 H 0.0 **** 0.06
34484 H 96.20004933298935 2.9365780245243513 30.284465005276445 H 0.0 **** 0.06
34485 H 96.6373897978295 1.7996345306681292 31.582131001590994 H 0.0 **** 0.06
34486 C 2.870520231546344 11.992347709665061 77.25076632725705 C 0.0 **** -0.24
34487 H 3.2839617560636185 11.185448641001258 76.64661782926359 H 0.0 **** 0.06
34488 H 2.5944677067737523 11.606395800306956 78.23233427035846 H 0.0 **** 0.06
34489 H 1.9876551828362494 12.399521756257446 76.75848790813188 H 0.0 **** 0.06
34490 H 3.6166764648729632 12.779443673613166 77.36634908563018 H 0.0 **** 0.06
34491 C 43.975288028624874 126.13325162833513 29.289142215791173 C 0.0 **** -0.24
34492 H 43.777804810203065 125.61073161429846 28.352708699959237 H 0.0 **** 0.06
34493 H 43.07189941385758 126.1392599707243 29.898877707806037 H 0.0 **** 0.06
34494 H 44.27612525008675 127.15879534740237 29.075711901778845 H 0.0 **** 0.06
34495 H 44.77497888538602 125.6244555634947 29.8279191629875 H 0.0 **** 0.06
34496 C 29.01330249514271 116.95714445547347 119.18862761487507 C 0.0 **** -0.24
34497 H 29.69011354543747 117.81083333465745 119.15380567325985 H 0.0 **** 0.06
34498 H 27.991747384408797 117.2967917540883 119.01877673870155 H 0.0 **** 0.06
34499 H 29.081237592004 116.47974386872764 120.16587883177537 H 0.0 **** 0.06
34500 H 29.29241017188798 116.24125242329316 118.41412190573627 H 0.0 **** 0.06
34501 C 27.196100345517003 72.28054149907454 13.27462303257846 C 0.0 **** -0.24
34502 H 27.17328110736191 72.66479696181922 12.254520817424861 H 0.0 **** 0.06
34503 H 27.031621458010626 73.10060954700131 13.975338167168786 H 0.0 **** 0.06
34504 H 28.16762107136659 71.8260528409623 13.469232946975353 H 0.0 **** 0.06
34505 H 26.412407208972176 71.53302986393663 13.398832162866881 H 0.0 **** 0.06
34506 C 29.52421188815714 0.5363836040284298 41.323556642600806 C 0.0 **** -0.24
34507 H 28.75985493651808 0.3933373673095275 40.55948876817544 H 0.0 **** 0.06
34508 H 29.244217013584887 -0.0106138107454683 42.22398330987909 H 0.0 **** 0.06
34509 H 29.612226188413842 1.5975132361961357 41.55428113921741 H 0.0 **** 0.06
34510 H 30.47961603968139 0.1642742376920978 40.95381215086489 H 0.0 **** 0.06
34511 C 33.09057320157342 50.158873733751875 115.05102422225853 C 0.0 **** -0.24
34512 H 32.4186184657091 50.289761994339415 114.20343970894716 H 0.0 **** 0.06
34513 H 34.097352159508404 50.46742843311449 114.76884411019931 H 0.0 **** 0.06
34514 H 33.10159405903558 49.10988210814912 115.34659581530859 H 0.0 **** 0.06
34515 H 32.744314316576606 50.768143592332535 115.88654056238649 H 0.0 **** 0.06
34516 C 72.94911414140142 108.94106980784599 114.97472658472752 C 0.0 **** -0.24
34517 H 72.36351731514549 108.15048431480287 114.50661618373623 H 0.0 **** 0.06
34518 H 73.92920012944012 108.55061932818327 115.25232424195882 H 0.0 **** 0.06
34519 H 72.43294420059306 109.29558239245998 115.86658691960345 H 0.0 **** 0.06
34520 H 73.07200323133117 109.76697772439135 114.27297738256517 H 0.0 **** 0.06
34521 C 16.34806242139865 86.40235298901504 128.36919447961031 C 0.0 **** -0.24
34522 H 16.821692692772274 86.2758627646873 127.39566530293827 H 0.0 **** 0.06
34523 H 16.416970268779494 85.4702133120712 128.93133848858437 H 0.0 **** 0.06
34524 H 15.299499117716266 86.66614153522781 128.23118335146518 H 0.0 **** 0.06
34525 H 16.85357703426115 87.19604980946119 128.91924611398068 H 0.0 **** 0.06
34526 C 41.09744067871918 52.554978210982114 93.50654032348925 C 0.0 **** -0.24
34527 H 41.35836023771193 52.95816708109683 94.48561756846195 H 0.0 **** 0.06
34528 H 41.32986448590119 53.292913411731234 92.73759664518231 H 0.0 **** 0.06
34529 H 40.03235023891949 52.32592290919982 93.48043546995164 H 0.0 **** 0.06
34530 H 41.67023120330119 51.64581832280575 93.32371586839838 H 0.0 **** 0.06
34531 C 109.46391094747798 91.18775493838103 101.15618130138176 C 0.0 **** -0.24
34532 H 109.49673705823966 90.50665080659357 102.00631073580485 H 0.0 **** 0.06
34533 H 109.0286953758411 92.13744599593986 101.46812649026649 H 0.0 **** 0.06
34534 H 108.85485575538564 90.75101994228443 100.36422749646374 H 0.0 **** 0.06
34535 H 110.47576423246488 91.3546814589137 100.78547657557209 H 0.0 **** 0.06
34536 C 54.32361176637525 128.94594091153346 69.62069725949911 C 0.0 **** -0.24
34537 H 54.879305111132595 128.02010698513527 69.47008866940982 H 0.0 **** 0.06
34538 H 53.33153353921355 128.8497006823422 69.18073132863162 H 0.0 **** 0.06
34539 H 54.85491108250008 129.7690032956524 69.1420691607037 H 0.0 **** 0.06
34540 H 54.231632251484285 129.144713632223 70.6883735366853 H 0.0 **** 0.06
34541 C 65.73099519789912 14.03949986165344 75.69668202957897 C 0.0 **** -0.24
34542 H 65.08093790608137 13.254942735950465 75.30972455277424 H 0.0 **** 0.06
34543 H 66.22326404598988 14.545721815787772 74.86517238439959 H 0.0 **** 0.06
34544 H 66.48373765390255 13.597952282048993 76.3497685474353 H 0.0 **** 0.06
34545 H 65.13743500699672 14.7589799492537 76.2611164350632 H 0.0 **** 0.06
34546 C 17.50257480732826 120.57348087979089 120.67321989575328 C 0.0 **** -0.24
34547 H 17.152322363660687 120.7669307049045 119.65951735675108 H 0.0 **** 0.06
34548 H 16.995337184111797 119.69344488790452 121.07051348966147 H 0.0 **** 0.06
34549 H 17.283641211983138 121.4352767633068 121.30381359628149 H 0.0 **** 0.06
34550 H 18.577897580093364 120.39695488323855 120.65879930626903 H 0.0 **** 0.06
34551 C 16.04181739272292 111.70775377093875 90.38799583949509 C 0.0 **** -0.24
34552 H 16.580013589682324 112.6542567263053 90.33409317767467 H 0.0 **** 0.06
34553 H 15.638919294404673 111.46284932549227 89.40513398911526 H 0.0 **** 0.06
34554 H 15.226064537342126 111.79481763096456 91.10490348389231 H 0.0 **** 0.06
34555 H 16.7248368808427 110.92041253973173 90.70702975594901 H 0.0 **** 0.06
34556 C 76.06987522863086 19.755505464462004 65.3573498298235 C 0.0 **** -0.24
34557 H 75.80143980311645 19.550570052646975 66.39354303062251 H 0.0 **** 0.06
34558 H 76.95413989271806 19.17737196235427 65.09075073222095 H 0.0 **** 0.06
34559 H 76.28247583814414 20.81871374544741 65.2408266025661 H 0.0 **** 0.06
34560 H 75.24255087217743 19.476598089224296 64.70540158837073 H 0.0 **** 0.06
34561 C 13.278206350106771 96.4021529137319 29.990284040590836 C 0.0 **** -0.24
34562 H 12.508146745134795 97.02658572735965 30.444098295363574 H 0.0 **** 0.06
34563 H 14.185611630322228 96.45033981009404 30.592595564251383 H 0.0 **** 0.06
34564 H 13.48918156989805 96.76074759160247 28.98299323712172 H 0.0 **** 0.06
34565 H 12.927097749580298 95.37131495325636 29.943206226961735 H 0.0 **** 0.06
34566 C 14.129987727052562 119.29504182950524 99.08585643700984 C 0.0 **** -0.24
34567 H 14.029323716460347 120.33100372742507 98.7626194379296 H 0.0 **** 0.06
34568 H 14.946166348713945 118.82261396792444 98.53920495186685 H 0.0 **** 0.06
34569 H 13.201369642964355 118.75976820108798 98.88630168735034 H 0.0 **** 0.06
34570 H 14.343654489887093 119.26589038322527 100.15435687339266 H 0.0 **** 0.06
34571 C 3.5772642807284285 92.80867532175417 3.1898100453220977 C 0.0 **** -0.24
34572 H 4.645302822226256 92.97911051828171 3.3250653013748455 H 0.0 **** 0.06
34573 H 3.017855509444786 93.61656841882385 3.6625278208534446 H 0.0 **** 0.06
34574 H 3.3000647194177475 91.85950754334364 3.647620441837983 H 0.0 **** 0.06
34575 H 3.345601526324373 92.7806349114348 2.1248581216267937 H 0.0 **** 0.06
34576 C 92.4418504167526 64.29706449815559 62.29429398975185 C 0.0 **** -0.24
34577 H 93.50371895797534 64.33436824772075 62.5393657184739 H 0.0 **** 0.06
34578 H 91.97202065997524 65.2411171404158 62.570639952934016 H 0.0 **** 0.06
34579 H 91.97095537068103 63.482102812259754 62.843258222635086 H 0.0 **** 0.06
34580 H 92.32194971281248 64.13029862162749 61.22334885125565 H 0.0 **** 0.06
34581 C 22.23832996481812 107.34816097330776 74.0762388262358 C 0.0 **** -0.24
34582 H 22.134465088784538 106.40725186201217 73.53640313929424 H 0.0 **** 0.06
34583 H 22.35977133888096 108.16382055467747 73.36398896316064 H 0.0 **** 0.06
34584 H 23.11227944695335 107.29910199187981 74.72585409223154 H 0.0 **** 0.06
34585 H 21.34705383061477 107.52053481961241 74.67915055327592 H 0.0 **** 0.06
34586 C 63.80701125210528 98.78764838624525 127.70844559913286 C 0.0 **** -0.24
34587 H 64.48154068805849 98.3992594944265 126.94487594180706 H 0.0 **** 0.06
34588 H 64.06903566137001 98.35714588883097 128.6759115589151 H 0.0 **** 0.06
34589 H 62.78173562729779 98.5199796930554 127.45672407224728 H 0.0 **** 0.06
34590 H 63.89910934623899 99.87277829725976 127.75552524115113 H 0.0 **** 0.06
34591 C 37.3916411012997 5.373724414076662 0.30168692416645904 C 0.0 **** -0.24
34592 H 38.41094371799391 4.991625320584802 0.35516508023864013 H 0.0 **** 0.06
34593 H 37.1784160345392 5.699611781062714 -0.7166921808708402 H 0.0 **** 0.06
34594 H 37.28319034770847 6.216686038409904 0.9843366277541357 H 0.0 **** 0.06
34595 H 36.69382440593342 4.585100196765552 0.5851428041689353 H 0.0 **** 0.06
34596 C 23.58085707046913 103.2192488648306 111.40820939188785 C 0.0 **** -0.24
34597 H 23.346094598046896 103.82256494612524 112.28547320079707 H 0.0 **** 0.06
34598 H 22.712101807765954 102.61777173158414 111.13793896674287 H 0.0 **** 0.06
34599 H 24.42124757627367 102.56276647136924 111.63479968416016 H 0.0 **** 0.06
34600 H 23.844342062163463 103.87339064821745 110.57677527883959 H 0.0 **** 0.06
34601 C 86.52894902015416 30.92224627139862 74.91446048001059 C 0.0 **** -0.24
34602 H 85.74863444857525 31.08878923144431 74.17161924502017 H 0.0 **** 0.06
34603 H 87.35915280469729 31.602833806888952 74.727145985171 H 0.0 **** 0.06
34604 H 86.87916522178716 29.89220192175125 74.84701624747028 H 0.0 **** 0.06
34605 H 86.1263460190826 31.104103695534263 75.91077727401554 H 0.0 **** 0.06
34606 C 53.42686569808055 32.322864726656974 122.74875996142109 C 0.0 **** -0.24
34607 H 52.37410942879079 32.395623495328095 122.47328773874553 H 0.0 **** 0.06
34608 H 54.04519819499444 32.51836787657811 121.87166703078637 H 0.0 **** 0.06
34609 H 53.63565052716616 31.32196575965986 123.1258668355515 H 0.0 **** 0.06
34610 H 53.651081577865 33.056948162049196 123.52200840837135 H 0.0 **** 0.06
34611 C 120.5035222018706 97.8848937721917 73.92431339400116 C 0.0 **** -0.24
34612 H 120.63506630224768 96.81109018019097 73.78812047900233 H 0.0 **** 0.06
34613 H 119.4821755397507 98.16134180532626 73.65950584212626 H 0.0 **** 0.06
34614 H 121.20335633785524 98.42093851284025 73.28385758550766 H 0.0 **** 0.06
34615 H 120.692302543301 98.1440837917034 74.9654680003871 H 0.0 **** 0.06
34616 C 55.77418790730107 78.66886733230466 33.35696000741625 C 0.0 **** -0.24
34617 H 55.45540072579141 77.92161595928424 34.083479500214224 H 0.0 **** 0.06
34618 H 56.39724693172761 79.41383339726454 33.85111326552388 H 0.0 **** 0.06
34619 H 54.89773525557126 79.15348424344492 32.92664073794528 H 0.0 **** 0.06
34620 H 56.345418599917224 78.18403016242435 32.56525748270455 H 0.0 **** 0.06
34621 C 112.64000536715658 54.56851556370202 90.99106386225185 C 0.0 **** -0.24
34622 H 113.4457965356607 54.67014186629332 91.7174171560844 H 0.0 **** 0.06
34623 H 111.9417462498513 53.80103166881241 91.32618502041788 H 0.0 **** 0.06
34624 H 113.05628192609494 54.28433971467601 90.02421153406054 H 0.0 **** 0.06
34625 H 112.11587150298078 55.51959843901854 90.89510268431796 H 0.0 **** 0.06
34626 C 125.43499653598117 41.29356068517004 5.84457351327465 C 0.0 **** -0.24
34627 H 125.52068794450545 40.87094766499913 6.8462160396085 H 0.0 **** 0.06
34628 H 125.6184806540272 40.51394327164657 5.105118480419684 H 0.0 **** 0.06
34629 H 126.16802452289228 42.09109568547579 5.722379504796425 H 0.0 **** 0.06
34630 H 124.43160415664524 41.69787634455732 5.70643546607505 H 0.0 **** 0.06
34631 C 77.7630614748546 15.659088949203067 55.091741055664514 C 0.0 **** -0.24
34632 H 77.53053676478982 16.57779846305006 55.629637439981195 H 0.0 **** 0.06
34633 H 76.91094452735385 15.373055935461153 54.475982795404605 H 0.0 **** 0.06
34634 H 77.97857651272449 14.865041827874393 55.80665776761769 H 0.0 **** 0.06
34635 H 78.63332540672877 15.821706302529265 54.45615334603579 H 0.0 **** 0.06
34636 C 28.249924255523382 119.42601999426864 43.028740376610074 C 0.0 **** -0.24
34637 H 27.29260453190608 119.7307702972517 43.452224380023324 H 0.0 **** 0.06
34638 H 28.90690590567202 120.29316291471264 42.95405574256864 H 0.0 **** 0.06
34639 H 28.09010692197458 119.00383436352126 42.036955044705394 H 0.0 **** 0.06
34640 H 28.709665839402277 118.67649288679712 43.67261865716284 H 0.0 **** 0.06
34641 C 40.9935177373506 84.13341420191355 30.22803005024827 C 0.0 **** -0.24
34642 H 39.925224087662656 84.25562082295559 30.40819308692719 H 0.0 **** 0.06
34643 H 41.15710187480349 83.25944821760808 29.597474610939436 H 0.0 **** 0.06
34644 H 41.50844244151327 83.99691741500433 31.179637487610215 H 0.0 **** 0.06
34645 H 41.382149490088665 85.02102040291936 29.72861732215533 H 0.0 **** 0.06
34646 C 112.6012635421808 62.13847797774618 98.49574434592368 C 0.0 **** -0.24
34647 H 112.37687784621733 62.760121036182156 97.62873831446079 H 0.0 **** 0.06
34648 H 111.67289270843723 61.875419517563884 99.00319615439398 H 0.0 **** 0.06
34649 H 113.24574591780082 62.68964456085048 99.18097304291042 H 0.0 **** 0.06
34650 H 113.10806571254794 61.23035900430105 98.17048150405157 H 0.0 **** 0.06
34651 C 19.609934506933115 119.27273268828475 3.678441849417265 C 0.0 **** -0.24
34652 H 20.59194780738858 119.60418176665496 4.014495121985156 H 0.0 **** 0.06
34653 H 18.84214964315305 119.69097885574452 4.32972983780094 H 0.0 **** 0.06
34654 H 19.562434774958433 118.18382820187986 3.7140273519528293 H 0.0 **** 0.06
34655 H 19.44351417057831 119.61059464580549 2.655814834546465 H 0.0 **** 0.06
34656 C 43.921639135143515 110.51472123007102 61.244666708253135 C 0.0 **** -0.24
34657 H 43.707602541066635 110.18712178254589 60.2273720589522 H 0.0 **** 0.06
34658 H 43.217943990957075 110.04533641902219 61.932787747142015 H 0.0 **** 0.06
34659 H 43.82030889568391 111.59868722665863 61.30551420631673 H 0.0 **** 0.06
34660 H 44.938753855673 110.22874815141847 61.51255569880874 H 0.0 **** 0.06
34661 C 4.19036275498155 26.805188934977735 63.18073771643847 C 0.0 **** -0.24
34662 H 4.896818377275338 26.017730558084878 62.91763080958407 H 0.0 **** 0.06
34663 H 3.4129747446115175 26.864597119709146 62.41890110194262 H 0.0 **** 0.06
34664 H 4.715572669383278 27.75857749264847 63.24077345732914 H 0.0 **** 0.06
34665 H 3.736494346723191 26.577444117111526 64.14585030206442 H 0.0 **** 0.06
34666 C 97.96369517309606 49.92807982193068 7.285915269827068 C 0.0 **** -0.24
34667 H 98.19551694903998 49.94550262666638 8.350510282420633 H 0.0 **** 0.06
34668 H 97.01375860428529 49.41572613791317 7.129755887256007 H 0.0 **** 0.06
34669 H 98.75348354801496 49.40062992060007 6.7502395846607826 H 0.0 **** 0.06
34670 H 97.89100161867053 50.94933001258477 6.912329739995339 H 0.0 **** 0.06
34671 C 130.7866685783882 11.00663019781598 46.61699235686342 C 0.0 **** -0.24
34672 H 130.1300293959719 11.866196662775451 46.75408351785839 H 0.0 **** 0.06
34673 H 130.3885683320344 10.154528485886146 47.168739930930656 H 0.0 **** 0.06
34674 H 131.78217678461112 11.247635088913398 46.989210705506906 H 0.0 **** 0.06
34675 H 130.8442496207651 10.75915678612057 45.55744681609258 H 0.0 **** 0.06
34676 C 39.14894686104384 84.04196476588542 108.14168747027108 C 0.0 **** -0.24
34677 H 39.490999792353804 84.17161956810742 109.16824963022313 H 0.0 **** 0.06
34678 H 38.33348917573366 83.31833250530633 108.11860840972591 H 0.0 **** 0.06
34679 H 39.97319013668299 83.68067760413179 107.5270053909353 H 0.0 **** 0.06
34680 H 38.79744839878026 84.99796881777424 107.75301977299463 H 0.0 **** 0.06
34681 C 61.848893644591385 111.24679295117875 74.189056362625 C 0.0 **** -0.24
34682 H 60.80006845331263 110.95989988572194 74.102808750102 H 0.0 **** 0.06
34683 H 62.35902223079944 110.55760272997634 74.8623654742168 H 0.0 **** 0.06
34684 H 61.91639078351392 112.25994644946701 74.5858177702055 H 0.0 **** 0.06
34685 H 62.31695167908043 111.20954289723119 73.20554908766441 H 0.0 **** 0.06
34686 C 125.83950142015192 112.05452906884754 7.643396777065988 C 0.0 **** -0.24
34687 H 125.11989323043431 111.8096934077954 6.861424215613624 H 0.0 **** 0.06
34688 H 126.84799269001749 111.84137281071015 7.2889941285754105 H 0.0 **** 0.06
34689 H 125.6312629612263 111.45299615110847 8.52884718544243 H 0.0 **** 0.06
34690 H 125.75666178575203 113.1120089230022 7.894299988159872 H 0.0 **** 0.06
34691 C 66.70902941364542 19.01096930123103 107.35162979113704 C 0.0 **** -0.24
34692 H 65.8345630448703 19.219167494245745 106.73503465739816 H 0.0 **** 0.06
34693 H 66.59168046937972 19.491444922594106 108.32275329006075 H 0.0 **** 0.06
34694 H 67.60042838365769 19.400291191210123 106.85990649123153 H 0.0 **** 0.06
34695 H 66.81066953950241 17.93469849970389 107.4875888449929 H 0.0 **** 0.06
34696 C 17.439637473560595 104.2114411863839 5.4601696889696285 C 0.0 **** -0.24
34697 H 16.628793698795334 104.06534180319704 4.745344600516489 H 0.0 **** 0.06
34698 H 17.38518127279775 105.2202916846459 5.870101027594984 H 0.0 **** 0.06
34699 H 18.396217409975407 104.07531847316653 4.955953579154581 H 0.0 **** 0.06
34700 H 17.346532469070553 103.48561008990498 6.267035885642912 H 0.0 **** 0.06
34701 C 75.59047002032912 78.50277550020786 50.24939066929039 C 0.0 **** -0.24
34702 H 75.99528927404145 79.25551223745482 50.92604808636656 H 0.0 **** 0.06
34703 H 75.8295985989484 77.50820197041347 50.62903342216373 H 0.0 **** 0.06
34704 H 76.02842739839065 78.63030820922434 49.25997965691653 H 0.0 **** 0.06
34705 H 74.50811452867453 78.61646633356212 50.18616511025914 H 0.0 **** 0.06
34706 C 35.07591469924023 127.03304700649221 13.167689762451943 C 0.0 **** -0.24
34707 H 35.40596489249225 126.89153146063126 14.197206023830006 H 0.0 **** 0.06
34708 H 34.67237841970325 128.03949728286597 13.050745938938377 H 0.0 **** 0.06
34709 H 34.3043624733304 126.30182776316445 12.930308316139502 H 0.0 **** 0.06
34710 H 35.921758259571504 126.90064050402128 12.493297709135732 H 0.0 **** 0.06
34711 C 62.44807605810311 34.38825985808711 29.26346849153265 C 0.0 **** -0.24
34712 H 61.713493243162304 34.91391804759343 29.873200402305116 H 0.0 **** 0.06
34713 H 62.333890803527396 34.68475900364655 28.220534895760068 H 0.0 **** 0.06
34714 H 62.29372855800983 33.313675403657385 29.355384255557283 H 0.0 **** 0.06
34715 H 63.45164970154002 34.64181775093613 29.605469696782308 H 0.0 **** 0.06
34716 C 18.95227696003849 57.845433764273935 58.993644126069825 C 0.0 **** -0.24
34717 H 20.02342621531608 58.0355347513364 58.933441945769374 H 0.0 **** 0.06
34718 H 18.424353870884886 58.786233090600945 59.15007723945453 H 0.0 **** 0.06
34719 H 18.74961865232848 57.17139796561926 59.82615469211483 H 0.0 **** 0.06
34720 H 18.612143764357427 57.38689521007535 58.06480866934635 H 0.0 **** 0.06
34721 C 117.18863992101842 30.151051250953316 26.09421983382316 C 0.0 **** -0.24
34722 H 117.45600877573133 29.173975934212443 26.49662906607948 H 0.0 **** 0.06
34723 H 116.32318704559111 30.540336847466072 26.631681077012757 H 0.0 **** 0.06
34724 H 116.9454677658187 30.052911410645244 25.035684331737173 H 0.0 **** 0.06
34725 H 118.02799724634184 30.835890509533556 26.21243111182703 H 0.0 **** 0.06
34726 C 75.33012421625352 39.73857265145381 90.50653508290492 C 0.0 **** -0.24
34727 H 75.92920578550644 40.03441190196014 89.64586567552288 H 0.0 **** 0.06
34728 H 75.824465742563 40.06321764182027 91.42194785069904 H 0.0 **** 0.06
34729 H 75.21986457652827 38.65414326696748 90.51664446555714 H 0.0 **** 0.06
34730 H 74.34573182278734 40.20364326243123 90.44019126128416 H 0.0 **** 0.06
34731 C 127.56060023761836 43.06898470439759 27.614251749041784 C 0.0 **** -0.24
34732 H 126.85177948609545 42.88401816054241 26.807327978998835 H 0.0 **** 0.06
34733 H 127.11358170741556 42.776513911170326 28.565032379959263 H 0.0 **** 0.06
34734 H 127.81162335361896 44.129792547389044 27.641503155947817 H 0.0 **** 0.06
34735 H 128.46619861799172 42.48615260390034 27.443457034774873 H 0.0 **** 0.06
34736 C 96.26973252754354 108.11862705070467 107.4360879984512 C 0.0 **** -0.24
34737 H 96.31409359364491 108.9035676083077 108.19115812344424 H 0.0 **** 0.06
34738 H 97.0720316780696 107.40242151772713 107.6097431274952 H 0.0 **** 0.06
34739 H 96.38399184658962 108.56078444965891 106.44619046235852 H 0.0 **** 0.06
34740 H 95.30735869511696 107.61008954494059 107.4978432304442 H 0.0 **** 0.06
34741 C 94.5706009965665 116.20974636633804 97.38615679503647 C 0.0 **** -0.24
34742 H 95.43122283387626 116.81695171596897 97.66474452510525 H 0.0 **** 0.06
34743 H 94.52534516788282 115.32803267242025 98.02572646656651 H 0.0 **** 0.06
34744 H 94.66729841906997 115.89914198511264 96.34545989403986 H 0.0 **** 0.06
34745 H 93.65932718159567 116.79399926457688 97.50741669636105 H 0.0 **** 0.06
34746 C 71.99919028105981 18.748547166603203 16.050529920331414 C 0.0 **** -0.24
34747 H 70.9749889252598 18.43064544539581 16.246860192231026 H 0.0 **** 0.06
34748 H 72.01255934354103 19.419943744174745 15.191037359761083 H 0.0 **** 0.06
34749 H 72.61653937666034 17.875003071755913 15.83999417092123 H 0.0 **** 0.06
34750 H 72.3913062292938 19.268828318565525 16.924505369450273 H 0.0 **** 0.06
34751 C 123.83454366162843 92.73436510790667 13.247811814126123 C 0.0 **** -0.24
34752 H 124.4410259586632 92.09190767668017 13.886267096359546 H 0.0 **** 0.06
34753 H 124.44411373496482 93.10833922199396 12.425595831532377 H 0.0 **** 0.06
34754 H 123.45606777533325 93.5730282683241 13.831509965399277 H 0.0 **** 0.06
34755 H 122.99644793008338 92.16211365955937 12.848537020174689 H 0.0 **** 0.06
34756 C 29.636694913806302 1.4465457433197102 89.58015851028793 C 0.0 **** -0.24
34757 H 29.900026675330153 1.7094672661024397 88.55562050293517 H 0.0 **** 0.06
34758 H 29.02420761776507 0.5455188858718198 89.5778515512059 H 0.0 **** 0.06
34759 H 29.077689323521597 2.266012154630481 90.03261077878776 H 0.0 **** 0.06
34760 H 30.546394897829884 1.267329903700272 90.15312629631634 H 0.0 **** 0.06
34761 C 30.313049077541358 56.46609400949586 99.88625392720073 C 0.0 **** -0.24
34762 H 30.16032757562553 56.186610362780385 100.92938459258855 H 0.0 **** 0.06
34763 H 31.273456299764618 56.07856851758581 99.54443452637292 H 0.0 **** 0.06
34764 H 30.30591454258849 57.55199080515682 99.79680747363119 H 0.0 **** 0.06
34765 H 29.513243130003637 56.0456650456117 99.2772298219738 H 0.0 **** 0.06
34766 C 43.45517877366258 23.721008830421802 125.62833210401216 C 0.0 **** -0.24
34767 H 42.86719760983871 23.29519888393093 124.81527090691756 H 0.0 **** 0.06
34768 H 44.39116252411249 23.169656475346855 125.72655918109874 H 0.0 **** 0.06
34769 H 42.8925757095232 23.65044260186604 126.55965681218899 H 0.0 **** 0.06
34770 H 43.670057873526346 24.766811078718675 125.41230198485898 H 0.0 **** 0.06
34771 C 23.834754630328973 110.20194513545795 5.355213563200664 C 0.0 **** -0.24
34772 H 22.800665286115873 110.31060775677872 5.682010325308113 H 0.0 **** 0.06
34773 H 24.072224014565847 110.98495345949726 4.634486310609361 H 0.0 **** 0.06
34774 H 23.966510509578313 109.2252918700662 4.889049128134218 H 0.0 **** 0.06
34775 H 24.497934708922116 110.28601968063131 6.216466228517447 H 0.0 **** 0.06
34776 C 90.57293602827535 80.8790627397936 12.857111148251533 C 0.0 **** -0.24
34777 H 89.82788610812979 81.62622282385783 13.132300082290215 H 0.0 **** 0.06
34778 H 91.28529914732027 80.75799324074501 13.67374355228003 H 0.0 **** 0.06
34779 H 91.09935384250709 81.20376678333918 11.960183626949004 H 0.0 **** 0.06
34780 H 90.07735074606114 79.92741460736849 12.663130292092632 H 0.0 **** 0.06
34781 C 45.21401329918507 116.72452713872295 62.13495850162518 C 0.0 **** -0.24
34782 H 45.69871317013454 117.38909093283809 61.41899933491759 H 0.0 **** 0.06
34783 H 45.886020370067286 115.900486821042 62.3780317656764 H 0.0 **** 0.06
34784 H 44.29648012674218 116.32869421644926 61.69902539671946 H 0.0 **** 0.06
34785 H 44.97518973053167 117.27961006444988 63.04158061869606 H 0.0 **** 0.06
34786 C 67.28723189057003 74.5810685747746 126.55396704929693 C 0.0 **** -0.24
34787 H 66.67919455064217 75.00168461222192 125.7528027504727 H 0.0 **** 0.06
34788 H 67.78210333530086 73.67770208649627 126.19772598196744 H 0.0 **** 0.06
34789 H 66.64909342971026 74.33545820363828 127.40278229191217 H 0.0 **** 0.06
34790 H 68.03675513255416 75.31043874925618 126.8612121167558 H 0.0 **** 0.06
34791 C 84.32287865492322 13.248951681073663 115.63374640782311 C 0.0 **** -0.24
34792 H 85.29898097778522 13.611149464401421 115.31210615494857 H 0.0 **** 0.06
34793 H 84.4545665376783 12.402455057051895 116.30868293180004 H 0.0 **** 0.06
34794 H 83.74828743520928 12.932254822062987 114.76285230147838 H 0.0 **** 0.06
34795 H 83.79107657166637 14.04746065832262 116.1504139861282 H 0.0 **** 0.06
34796 C 80.32319495417559 55.64101063918545 111.711020066235 C 0.0 **** -0.24
34797 H 80.61218830563493 54.72770508650191 111.19151718103592 H 0.0 **** 0.06
34798 H 80.13519609102477 55.41671225740001 112.76154098325446 H 0.0 **** 0.06
34799 H 79.41791311758524 56.04535217951894 111.25738891182493 H 0.0 **** 0.06
34800 H 81.12692870148044 56.37297294552616 111.63369158045205 H 0.0 **** 0.06
34801 C 46.11341284144419 106.40022234722898 93.08087500927098 C 0.0 **** -0.24
34802 H 46.931095923976045 107.0748912942736 92.82502989644483 H 0.0 **** 0.06
34803 H 45.24025728792725 106.98414928660105 93.37323133287 H 0.0 **** 0.06
34804 H 46.416378130621695 105.7599304042202 93.90869483984835 H 0.0 **** 0.06
34805 H 45.86543518359878 105.78487276916809 92.21635120005465 H 0.0 **** 0.06
34806 C 39.01247512244905 29.545145409824734 11.856552494763605 C 0.0 **** -0.24
34807 H 38.38712779313565 29.70183308046837 12.734576454359228 H 0.0 **** 0.06
34808 H 39.14660867280085 28.47567120770539 11.691948017946658 H 0.0 **** 0.06
34809 H 39.984232429462395 30.012762230472326 12.014848771461203 H 0.0 **** 0.06
34810 H 38.53318084501805 29.990063095492808 10.984223572907752 H 0.0 **** 0.06
34811 C 20.8392301713767 125.8358747748805 89.11129850529903 C 0.0 **** -0.24
34812 H 21.441256939679533 125.1563059460716 89.71490472968048 H 0.0 **** 0.06
34813 H 21.465842804983367 126.65260392774019 88.75061628801785 H 0.0 **** 0.06
34814 H 20.028811487310747 126.23994891879533 89.71927070934987 H 0.0 **** 0.06
34815 H 20.421418551057627 125.29512713375595 88.26229857013999 H 0.0 **** 0.06
34816 C 84.18403441260965 108.23001022526385 72.92816693505894 C 0.0 **** -0.24
34817 H 84.18800620777685 107.29549052323709 73.48799239465073 H 0.0 **** 0.06
34818 H 84.01141743197904 108.02023328214663 71.8728805074481 H 0.0 **** 0.06
34819 H 85.14616390831496 108.72877140535161 73.04765176100192 H 0.0 **** 0.06
34820 H 83.39042889604734 108.87621190904706 73.305384678333 H 0.0 **** 0.06
34821 C 28.145806962206436 61.225817669813736 114.89341344886768 C 0.0 **** -0.24
34822 H 28.04397035102643 60.463279980029625 114.12168097777678 H 0.0 **** 0.06
34823 H 29.19330826663961 61.51477466555082 114.98221306359906 H 0.0 **** 0.06
34824 H 27.79569994047587 60.82880593076243 115.84548599860503 H 0.0 **** 0.06
34825 H 27.550444789421547 62.09817736796546 114.62291771927315 H 0.0 **** 0.06
34826 C 95.6953566080285 77.86782799881391 126.97131828336575 C 0.0 **** -0.24
34827 H 96.00268498671852 78.89539116305261 127.17070432120659 H 0.0 **** 0.06
34828 H 95.94145967701718 77.24285274132461 127.82967815408435 H 0.0 **** 0.06
34829 H 96.2186113557467 77.49774706478499 126.08954333986782 H 0.0 **** 0.06
34830 H 94.62052270231149 77.83836779444269 126.79481163844764 H 0.0 **** 0.06
34831 C 10.009384031487343 19.02808623541796 91.49453256273716 C 0.0 **** -0.24
34832 H 9.010481143489244 18.70677270995148 91.79040438566045 H 0.0 **** 0.06
34833 H 10.418750997782183 18.321412423584434 90.77171906368284 H 0.0 **** 0.06
34834 H 10.654026440290266 19.065081126937585 92.37192924450295 H 0.0 **** 0.06
34835 H 9.953177835079188 20.01885759306178 91.04275773615956 H 0.0 **** 0.06
34836 C 77.79659258558353 50.643822028357945 15.362855578735108 C 0.0 **** -0.24
34837 H 77.43199844352895 50.194898140458264 14.439544222534053 H 0.0 **** 0.06
34838 H 78.43114347255819 51.498100931157566 15.125591520196565 H 0.0 **** 0.06
34839 H 78.37365706779245 49.90662228969255 15.921594900183123 H 0.0 **** 0.06
34840 H 76.95114398350528 50.97586443976603 15.96539019754033 H 0.0 **** 0.06
34841 C 63.485518306467384 30.30449649306938 49.62211988997697 C 0.0 **** -0.24
34842 H 63.737118772082965 30.505554801971954 50.662999411776894 H 0.0 **** 0.06
34843 H 63.71175100498152 31.184265294169265 49.017498322353475 H 0.0 **** 0.06
34844 H 62.42304934664804 30.07380425817857 49.54321943360682 H 0.0 **** 0.06
34845 H 64.07046125792272 29.45723781208345 49.26396636061983 H 0.0 **** 0.06
34846 C 15.818715942745342 80.01667971487862 29.64248136628234 C 0.0 **** -0.24
34847 H 15.022704372452978 80.6615056339701 29.2717570552297 H 0.0 **** 0.06
34848 H 16.59586950478402 79.9255242497519 28.88249479405013 H 0.0 **** 0.06
34849 H 15.411803110409267 79.02990935510365 29.866360233220348 H 0.0 **** 0.06
34850 H 16.244771465773027 80.44853788008616 30.5474756351136 H 0.0 **** 0.06
34851 C 127.31131007649428 86.4388356953695 110.1970016876085 C 0.0 **** -0.24
34852 H 128.02703387287727 87.20829573042391 109.90842216009315 H 0.0 **** 0.06
34853 H 126.29904192910615 86.78704699334205 109.98789968708496 H 0.0 **** 0.06
34854 H 127.41136255867801 86.23033829678863 111.26151130460482 H 0.0 **** 0.06
34855 H 127.50741490378323 85.52872442687192 109.62876940081063 H 0.0 **** 0.06
34856 C 50.78132246765432 98.75257218558247 119.79453487658415 C 0.0 **** -0.24
34857 H 51.32481881959325 97.84099789804638 119.5474388127198 H 0.0 **** 0.06
34858 H 51.09937715075773 99.55611329451769 119.12979853145893 H 0.0 **** 0.06
34859 H 50.99111246112602 99.03101306460579 120.82692543459956 H 0.0 **** 0.06
34860 H 49.71208210486617 98.58293095971769 119.67397665015778 H 0.0 **** 0.06
34861 C 57.59960272094992 60.07224145925437 125.80073922975984 C 0.0 **** -0.24
34862 H 58.05631451932727 61.00058508784497 126.14176684166208 H 0.0 **** 0.06
34863 H 56.51630768893291 60.13913647800871 125.91036362045074 H 0.0 **** 0.06
34864 H 57.974572163043604 59.241874055580524 126.39819575880549 H 0.0 **** 0.06
34865 H 57.8498828920839 59.907839520998266 124.75266704261796 H 0.0 **** 0.06
34866 C 62.19937689329994 72.78429386762267 63.87387111275433 C 0.0 **** -0.24
34867 H 62.60904408446363 71.91203126496195 64.38309818132495 H 0.0 **** 0.06
34868 H 61.12266047024353 72.82953345616374 64.03809841449447 H 0.0 **** 0.06
34869 H 62.4010736259375 72.70914719379827 62.80490529185761 H 0.0 **** 0.06
34870 H 62.665726552335485 73.68710599906376 64.26861246553864 H 0.0 **** 0.06
34871 C 120.13018819342074 123.03844092712443 22.739276394565934 C 0.0 **** -0.24
34872 H 120.17586360061583 123.0346620181768 23.827901167586276 H 0.0 **** 0.06
34873 H 119.75129796537499 122.07858673240032 22.38876595380856 H 0.0 **** 0.06
34874 H 121.128560562616 123.20549812868943 22.33405051180256 H 0.0 **** 0.06
34875 H 119.46580694719052 123.83609841568644 22.40591083117488 H 0.0 **** 0.06
34876 C 120.6637637447624 110.85173454174848 38.66895288695122 C 0.0 **** -0.24
34877 H 120.86126896290676 111.6648532451148 39.36801738694882 H 0.0 **** 0.06
34878 H 121.42129752520492 110.85609409588588 37.88417003278701 H 0.0 **** 0.06
34879 H 119.67864350785774 110.98528813580977 38.22448927788653 H 0.0 **** 0.06
34880 H 120.6972915098869 109.90051731488516 39.20057979732985 H 0.0 **** 0.06
34881 C 82.89428819202257 38.378041533788235 50.88960186414053 C 0.0 **** -0.24
34882 H 82.951740152425 37.307550284650915 51.08285077931147 H 0.0 **** 0.06
34883 H 82.00651453112022 38.787647057409174 51.37117397344615 H 0.0 **** 0.06
34884 H 82.83713553841281 38.550585543748014 49.814166281587745 H 0.0 **** 0.06
34885 H 83.78366429184203 38.86705777703446 51.28925275453679 H 0.0 **** 0.06
34886 C 71.77017359129468 49.67899180754375 124.80476820721542 C 0.0 **** -0.24
34887 H 71.99221517562502 49.8034497956443 125.864397475368 H 0.0 **** 0.06
34888 H 71.04839576214292 48.8711657619334 124.67756991385332 H 0.0 **** 0.06
34889 H 72.68696088116225 49.434886175384534 124.26744426920753 H 0.0 **** 0.06
34890 H 71.35352945306998 50.604897309799526 124.40904848542112 H 0.0 **** 0.06
34891 C 4.2957863217877446 7.651179852956744 63.826704931290436 C 0.0 **** -0.24
34892 H 3.882804202787298 8.600863390740471 64.16482228208824 H 0.0 **** 0.06
34893 H 5.217815543390287 7.8329315832748705 63.27394374683462 H 0.0 **** 0.06
34894 H 3.5757275887924322 7.151872343718935 63.17902919784623 H 0.0 **** 0.06
34895 H 4.507549681593133 7.019710821831069 64.68905669477633 H 0.0 **** 0.06
34896 C 58.185966287531116 54.20864352454592 128.66054702494904 C 0.0 **** -0.24
34897 H 57.65204325232891 54.91974549162586 128.03103801463675 H 0.0 **** 0.06
34898 H 59.2545543906554 54.26898355351621 128.45345759141924 H 0.0 **** 0.06
34899 H 57.83164256797687 53.19954361208275 128.44940594605043 H 0.0 **** 0.06
34900 H 58.00492780321905 54.44446168499648 129.7093493643344 H 0.0 **** 0.06
34901 C 37.464590656333115 60.69297904605443 11.23087842865047 C 0.0 **** -0.24
34902 H 36.87244214751078 61.58189889924654 11.012910264930412 H 0.0 **** 0.06
34903 H 36.82249176009111 59.81256244523536 11.203545482266208 H 0.0 **** 0.06
34904 H 37.90985441921336 60.78781564282458 12.221371580462204 H 0.0 **** 0.06
34905 H 38.25348925112942 60.59207260176615 10.48595404988373 H 0.0 **** 0.06
34906 C 52.39952432569186 54.64579651156055 120.36570150205526 C 0.0 **** -0.24
34907 H 53.287911968136086 55.19904760507103 120.06050465707474 H 0.0 **** 0.06
34908 H 52.626626248089735 53.57973992217018 120.38979640534453 H 0.0 **** 0.06
34909 H 51.594210399506096 54.83003257779217 119.65485552468311 H 0.0 **** 0.06
34910 H 52.091088704686 54.974969996492575 121.35842895917827 H 0.0 **** 0.06
34911 C 90.47692529222778 1.408115086310744 76.40074908065944 C 0.0 **** -0.24
34912 H 90.89956320915057 2.2137409908974064 77.0015648531801 H 0.0 **** 0.06
34913 H 90.16889848938224 0.5915495335233913 77.05249793042373 H 0.0 **** 0.06
34914 H 91.22792628015638 1.0479940327171562 75.69726927363455 H 0.0 **** 0.06
34915 H 89.613515485971 1.781857931332894 75.85026541428934 H 0.0 **** 0.06
34916 C 110.96715885453739 30.101945492017677 92.77491869392672 C 0.0 **** -0.24
34917 H 110.95924318397809 31.13355925828725 92.42301124798591 H 0.0 **** 0.06
34918 H 110.44078629188263 29.470058938938806 92.05874703628918 H 0.0 **** 0.06
34919 H 110.47097992528697 30.043976520683742 93.7439865804125 H 0.0 **** 0.06
34920 H 111.99744740106328 29.759581962085207 92.87315416709177 H 0.0 **** 0.06
34921 C 18.98661250576798 83.504516585507 31.853451257547647 C 0.0 **** -0.24
34922 H 19.48769243578647 83.18742936428016 30.93921822878997 H 0.0 **** 0.06
34923 H 19.004164660070053 82.69056927316588 32.57903049535605 H 0.0 **** 0.06
34924 H 17.95328214166063 83.76973002476673 31.629159756440743 H 0.0 **** 0.06
34925 H 19.501972962907402 84.37127222127712 32.26856184152524 H 0.0 **** 0.06
34926 C 62.67656661866192 89.66935238478248 9.66664137655664 C 0.0 **** -0.24
34927 H 62.37025508537391 88.6238480702234 9.627609841110683 H 0.0 **** 0.06
34928 H 63.718861335801876 89.7527735859689 9.355276289235206 H 0.0 **** 0.06
34929 H 62.57016957528151 90.0412853961738 10.685131391652135 H 0.0 **** 0.06
34930 H 62.04856365002513 90.25633256142083 8.99734551861539 H 0.0 **** 0.06
34931 C 40.879952390240305 93.06196188432313 98.40629776755388 C 0.0 **** -0.24
34932 H 41.58221674887568 93.60317931754511 97.7724453267773 H 0.0 **** 0.06
34933 H 41.36698988043224 92.17605606783067 98.81462713743751 H 0.0 **** 0.06
34934 H 40.01447274917397 92.7613783961211 97.81572598399559 H 0.0 **** 0.06
34935 H 40.55585857628269 93.70861259878754 99.22255115899257 H 0.0 **** 0.06
34936 C 53.349841486982314 65.54256246643706 19.359075345938663 C 0.0 **** -0.24
34937 H 54.32039926822074 65.8697389670898 19.73118496180541 H 0.0 **** 0.06
34938 H 53.48359140984053 64.67888193574379 18.70683426092978 H 0.0 **** 0.06
34939 H 52.883193075264444 66.35329626735586 18.79864917694914 H 0.0 **** 0.06
34940 H 52.71307408137773 65.26795675140352 20.199381468816625 H 0.0 **** 0.06
34941 C 76.71510004470774 68.26279782723287 69.73947598223475 C 0.0 **** -0.24
34942 H 77.3426245967401 67.40076004258395 69.96610182507976 H 0.0 **** 0.06
34943 H 75.67818161840233 68.03130422285591 69.98556626595303 H 0.0 **** 0.06
34944 H 76.79304491004092 68.49979240678238 68.67826787173999 H 0.0 **** 0.06
34945 H 77.0466469733807 69.11710315421243 70.32786224323468 H 0.0 **** 0.06
34946 C 109.48153017363776 78.94747482236896 34.93634180887423 C 0.0 **** -0.24
34947 H 108.88725285974674 79.48703882107534 34.19929594653044 H 0.0 **** 0.06
34948 H 108.84100482325009 78.25498466840537 35.483728515943994 H 0.0 **** 0.06
34949 H 109.92902324454607 79.65636493331652 35.63176767556851 H 0.0 **** 0.06
34950 H 110.26882151893642 78.38938846608498 34.429352224433956 H 0.0 **** 0.06
34951 C 75.37257576559192 99.80773865559007 33.333596414849325 C 0.0 **** -0.24
34952 H 76.14656690635076 99.57665206725375 32.60223868423566 H 0.0 **** 0.06
34953 H 74.51020027620488 99.16285018136495 33.165945536230396 H 0.0 **** 0.06
34954 H 75.0726579120553 100.85078238360182 33.227423953262644 H 0.0 **** 0.06
34955 H 75.76100749519473 99.64156871909665 34.338358481069235 H 0.0 **** 0.06
34956 C 119.67713659575483 81.0323326226856 3.0726477905118657 C 0.0 **** -0.24
34957 H 120.23916458870448 81.9335054109824 2.8296178507456773 H 0.0 **** 0.06
34958 H 119.53273790776169 80.44000491057854 2.1683245914221914 H 0.0 **** 0.06
34959 H 118.70687391897425 81.30930134496128 3.484107504726353 H 0.0 **** 0.06
34960 H 120.22908115924784 80.4457994209932 3.8071241160290867 H 0.0 **** 0.06
34961 C 50.54024051762093 3.5939536134522427 38.13017510848267 C 0.0 **** -0.24
34962 H 49.88267705170307 2.7444602659947464 38.31609669988538 H 0.0 **** 0.06
34963 H 50.819407758148145 4.051103671822375 39.08059189266359 H 0.0 **** 0.06
34964 H 50.02038370026236 4.32673934056254 37.51224591273942 H 0.0 **** 0.06
34965 H 51.43715689155374 3.253367054339776 37.61381358126934 H 0.0 **** 0.06
34966 C 106.26803775935502 20.299010776412047 86.3029704275642 C 0.0 **** -0.24
34967 H 106.54509797512873 19.35629713012645 86.77594098421524 H 0.0 **** 0.06
34968 H 106.74828040458584 21.12447523413789 86.82962968426651 H 0.0 **** 0.06
34969 H 105.18554590975342 20.422217132177195 86.34514974931295 H 0.0 **** 0.06
34970 H 106.59299605704342 20.292531798232744 85.26245535850018 H 0.0 **** 0.06
34971 C 49.75045369618266 71.71703945801113 122.29012500701742 C 0.0 **** -0.24
34972 H 48.67890549507585 71.52810677908752 122.36092339064211 H 0.0 **** 0.06
34973 H 49.92134759753682 72.78125765417298 122.12539668602935 H 0.0 **** 0.06
34974 H 50.164800263059476 71.14973118904732 121.45716961969117 H 0.0 **** 0.06
34975 H 50.235513010060785 71.4092623310824 123.21637668089522 H 0.0 **** 0.06
34976 C 24.558538088002308 71.0665323867112 126.18355151203583 C 0.0 **** -0.24
34977 H 24.338142467287298 71.76674982966023 125.37848461321965 H 0.0 **** 0.06
34978 H 25.069267230756253 71.59106231265862 126.99144048980283 H 0.0 **** 0.06
34979 H 25.199156334719618 70.26880710280659 125.8060555943998 H 0.0 **** 0.06
34980 H 23.628564174245156 70.63853944323571 126.5579070029499 H 0.0 **** 0.06
34981 C 74.09008611260101 70.6905579502522 33.78839822340806 C 0.0 **** -0.24
34982 H 74.77248637701828 71.53239641189948 33.904309121085326 H 0.0 **** 0.06
34983 H 73.26614913919323 70.7914042855147 34.49454716449829 H 0.0 **** 0.06
34984 H 74.62440570569589 69.76071064529464 33.98267899419277 H 0.0 **** 0.06
34985 H 73.69836551649631 70.67841581366285 32.771434607415976 H 0.0 **** 0.06
34986 C 124.4347806400138 77.03834025905036 48.50776946547794 C 0.0 **** -0.24
34987 H 124.593761916576 77.5821666237062 49.43932802445224 H 0.0 **** 0.06
34988 H 125.33952982257568 77.08276381317654 47.90230775764766 H 0.0 **** 0.06
34989 H 123.60742315266947 77.49001606215523 47.96056930221478 H 0.0 **** 0.06
34990 H 124.19678237419515 75.99790421824821 48.73171858316536 H 0.0 **** 0.06
34991 C 50.454743365780416 6.185980680772719 130.22660514075972 C 0.0 **** -0.24
34992 H 51.22480070294921 6.373419839741189 130.97514221205503 H 0.0 **** 0.06
34993 H 49.514445753763425 5.948538295262868 130.72531652857276 H 0.0 **** 0.06
34994 H 50.75505987441318 5.348896300120607 129.5973300530732 H 0.0 **** 0.06
34995 H 50.32518873369736 7.07604078129356 129.60957663682896 H 0.0 **** 0.06
34996 C 30.64051171025531 19.883151769462415 31.613689401683274 C 0.0 **** -0.24
34997 H 30.26670773463576 20.677618177823142 30.968007462051105 H 0.0 **** 0.06
34998 H 31.679114322790014 20.08711195966709 31.876050567069484 H 0.0 **** 0.06
34999 H 30.577015764199444 18.92910934323684 31.091247317308103 H 0.0 **** 0.06
35000 H 30.03902517361513 19.84044764631802 32.52193099767916 H 0.0 **** 0.06
35001 C 93.67625282440599 65.75035979992994 114.80928780371094 C 0.0 **** -0.24
35002 H 94.07622812254726 65.86768914624017 113.80310494467942 H 0.0 **** 0.06
35003 H 93.5099838931913 64.69256440302014 115.01282159659196 H 0.0 **** 0.06
35004 H 92.73130922114046 66.28895275588681 114.8892362637719 H 0.0 **** 0.06
35005 H 94.38615762479031 66.1528731726888 115.53289108704573 H 0.0 **** 0.06
35006 C 41.43023975970476 97.83355922209046 19.587421848073575 C 0.0 **** -0.24
35007 H 40.59671691867908 97.15438787598399 19.764210932081454 H 0.0 **** 0.06
35008 H 41.47487266027724 98.08586971072246 18.52805468770029 H 0.0 **** 0.06
35009 H 42.36090780846769 97.35202120708607 19.886643441820212 H 0.0 **** 0.06
35010 H 41.28719068061082 98.74294144157805 20.171969080759425 H 0.0 **** 0.06
35011 C 56.34795539159427 64.65114933373846 74.64681750394499 C 0.0 **** -0.24
35012 H 55.268999719267754 64.75990204001555 74.53620565305667 H 0.0 **** 0.06
35013 H 56.69073035385776 63.80998817484421 74.04343308538256 H 0.0 **** 0.06
35014 H 56.58901948667847 64.47051506406125 75.69385894184899 H 0.0 **** 0.06
35015 H 56.84071186473261 65.56396308838501 74.3122303394143 H 0.0 **** 0.06
35016 C 83.16889486390616 31.108205626235296 57.48425724305062 C 0.0 **** -0.24
35017 H 83.68305795099471 30.226070062048265 57.86634186591573 H 0.0 **** 0.06
35018 H 83.87905908949065 31.737429701140762 56.946733879265324 H 0.0 **** 0.06
35019 H 82.74365994035105 31.668525681200627 58.31679862615992 H 0.0 **** 0.06
35020 H 82.37177070983975 30.79971839611916 56.80914533875671 H 0.0 **** 0.06
35021 C 67.13328086473396 37.86844875069126 99.55801238086826 C 0.0 **** -0.24
35022 H 66.85558212862527 37.9352741490402 98.50590009064024 H 0.0 **** 0.06
35023 H 66.63244324017386 38.659693589781455 100.11654151220739 H 0.0 **** 0.06
35024 H 68.21252188712097 37.9801093930962 99.6560741769855 H 0.0 **** 0.06
35025 H 66.83153592020359 36.89778644249674 99.95152113622805 H 0.0 **** 0.06
35026 C 54.78634735133497 29.503793509668924 119.91290578393799 C 0.0 **** -0.24
35027 H 55.78039280685812 29.323722787039713 119.50200103932778 H 0.0 **** 0.06
35028 H 54.1147814546313 29.81817332523505 119.11437650268158 H 0.0 **** 0.06
35029 H 54.84302347691258 30.28654249887333 120.67034316829083 H 0.0 **** 0.06
35030 H 54.40983797979342 28.5863535170883 120.36582525819972 H 0.0 **** 0.06
35031 C 85.95939936378514 33.49647377299419 11.35462279567355 C 0.0 **** -0.24
35032 H 85.99954910842277 34.103568209295844 10.45052723492412 H 0.0 **** 0.06
35033 H 86.97027996995612 33.21660335059073 11.649875866855261 H 0.0 **** 0.06
35034 H 85.3733095908184 32.59780985956789 11.162689450233326 H 0.0 **** 0.06
35035 H 85.49257491710145 34.07091358471007 12.156603764840103 H 0.0 **** 0.06
35036 C 47.773681096724886 61.81548309605071 1.574121073606765 C 0.0 **** -0.24
35037 H 48.322916575297654 61.17660839686707 0.882560536837687 H 0.0 **** 0.06
35038 H 48.01194526293287 62.85945205508219 1.3722066595249984 H 0.0 **** 0.06
35039 H 48.054896169236514 61.56852174780394 2.5981873230345194 H 0.0 **** 0.06
35040 H 46.703363912123905 61.6550216337298 1.4434278060941317 H 0.0 **** 0.06
35041 C 81.8970580136913 59.36293408088804 2.2353799902096796 C 0.0 **** -0.24
35042 H 82.87368791309822 59.465821062228684 1.7634607998931244 H 0.0 **** 0.06
35043 H 81.35752669494387 60.30743016263412 2.1637937633056197 H 0.0 **** 0.06
35044 H 82.02731197396379 59.09800731305833 3.284698430831753 H 0.0 **** 0.06
35045 H 81.33023396089295 58.580353090238276 1.730406733026058 H 0.0 **** 0.06
35046 C 8.816130068811638 109.52682287983185 93.15503976615325 C 0.0 **** -0.24
35047 H 9.375250429437124 108.80308153893627 93.74884311303579 H 0.0 **** 0.06
35048 H 9.512418466750908 110.17845251934277 92.62729291279254 H 0.0 **** 0.06
35049 H 8.184606221246653 110.12424762765586 93.81340883518347 H 0.0 **** 0.06
35050 H 8.192066735150679 108.9999611784416 92.43317747041148 H 0.0 **** 0.06
35051 C 119.70725961539674 92.14455371751451 118.68898357648368 C 0.0 **** -0.24
35052 H 120.59131160579216 92.24998074677272 119.31864439567674 H 0.0 **** 0.06
35053 H 119.11417040750698 91.29797501140007 119.03462811254245 H 0.0 **** 0.06
35054 H 120.01476909950807 91.9759925653013 117.65688884733085 H 0.0 **** 0.06
35055 H 119.11007822538933 93.05448434770534 118.74630803182558 H 0.0 **** 0.06
35056 C 125.06272496723616 41.03556546452029 115.6174547935293 C 0.0 **** -0.24
35057 H 124.61150208077709 40.91934213879921 114.63233678790112 H 0.0 **** 0.06
35058 H 125.09471889467216 42.09296818567486 115.88034707384796 H 0.0 **** 0.06
35059 H 126.07535286472208 40.63255528625672 115.60349044947614 H 0.0 **** 0.06
35060 H 124.46736621254959 40.495388056792024 116.3547063687059 H 0.0 **** 0.06
35061 C 32.7709458495722 80.2255893023848 18.09104797309834 C 0.0 **** -0.24
35062 H 31.759485630257814 80.1580118003437 17.688995687163015 H 0.0 **** 0.06
35063 H 32.75984261772976 80.81831612032997 19.005599826877187 H 0.0 **** 0.06
35064 H 33.42154878605945 80.70108659722723 17.357161330657632 H 0.0 **** 0.06
35065 H 33.14193072158605 79.22474416363897 18.311017699506323 H 0.0 **** 0.06
35066 C 62.9603012066041 20.390451464117746 103.35310192685955 C 0.0 **** -0.24
35067 H 63.29750963787967 21.38508006299378 103.06056659545241 H 0.0 **** 0.06
35068 H 62.22952636403278 20.47711075540559 104.15759791994081 H 0.0 **** 0.06
35069 H 63.812944247938105 19.805969016219137 103.69904497516058 H 0.0 **** 0.06
35070 H 62.50374995754669 19.894608857199614 102.49758487277366 H 0.0 **** 0.06
35071 C 75.01197314949688 9.281865753825798 117.1397388457439 C 0.0 **** -0.24
35072 H 74.96983738901056 10.171923379814757 117.76818018373868 H 0.0 **** 0.06
35073 H 75.20620458536524 9.575398818952976 116.1080795199104 H 0.0 **** 0.06
35074 H 74.0594662669348 8.754620368942767 117.19449668539002 H 0.0 **** 0.06
35075 H 75.81066876648617 8.62791986758964 117.48874675073981 H 0.0 **** 0.06
35076 C 70.56825317155922 80.89409745994371 81.25470645693099 C 0.0 **** -0.24
35077 H 70.83284512281084 81.3142299009867 80.28427391947633 H 0.0 **** 0.06
35078 H 71.0029399255878 79.89822710231358 81.34926973224108 H 0.0 **** 0.06
35079 H 69.48362695777749 80.82755464121402 81.33809399872683 H 0.0 **** 0.06
35080 H 70.95575755950797 81.53647166378438 82.04603082237253 H 0.0 **** 0.06
35081 C 44.39514575252093 56.91857177287147 65.50264508254844 C 0.0 **** -0.24
35082 H 44.03857311498737 56.07406057489351 64.9133334214122 H 0.0 **** 0.06
35083 H 45.29157723649791 57.33182790788595 65.03969101971649 H 0.0 **** 0.06
35084 H 44.62990108996525 56.583056758148984 66.51323259705896 H 0.0 **** 0.06
35085 H 43.62150930024503 57.685184711240254 65.54446259053302 H 0.0 **** 0.06
35086 C 68.99985839895534 58.9962743576414 17.119091259399227 C 0.0 **** -0.24
35087 H 68.51369139696982 59.93249689640439 16.842386455720003 H 0.0 **** 0.06
35088 H 68.75417616189439 58.7514082053207 18.152508544376644 H 0.0 **** 0.06
35089 H 70.07964024436694 59.104522415696636 17.017582711025682 H 0.0 **** 0.06
35090 H 68.65061783983178 58.19848083196254 16.46378676624326 H 0.0 **** 0.06
35091 C 89.64710150152878 85.4125309175481 65.35576375286439 C 0.0 **** -0.24
35092 H 89.22294403205467 84.56216852758689 64.82310660161146 H 0.0 **** 0.06
35093 H 90.18306560957313 86.0510136906854 64.65344566493076 H 0.0 **** 0.06
35094 H 90.3367391450457 85.05340761049 66.12012419177469 H 0.0 **** 0.06
35095 H 88.84644586338278 85.98277168461553 65.82727145269992 H 0.0 **** 0.06
35096 C 34.9404864240621 12.141729174997153 3.571838412961572 C 0.0 **** -0.24
35097 H 35.37874956098932 11.847329429673607 4.526346023772007 H 0.0 **** 0.06
35098 H 35.68843655785412 12.04437688946473 2.7845680445198013 H 0.0 **** 0.06
35099 H 34.60734251674296 13.178036660066795 3.630527573820686 H 0.0 **** 0.06
35100 H 34.089782490036384 11.498001547362549 3.349186211646469 H 0.0 **** 0.06
35101 C 127.15317427753574 91.68102390715839 83.43311110536317 C 0.0 **** -0.24
35102 H 128.07462966012807 91.10571765598567 83.35014665579706 H 0.0 **** 0.06
35103 H 126.60908879025959 91.63443478150421 82.48967911811368 H 0.0 **** 0.06
35104 H 127.3922793948976 92.71958825483219 83.6644428483794 H 0.0 **** 0.06
35105 H 126.53647923620613 91.26445396947207 84.22989100984151 H 0.0 **** 0.06
35106 C 82.64838015727479 92.32461000338748 30.878256647648243 C 0.0 **** -0.24
35107 H 83.41474407018923 92.4312529477489 30.11000008248095 H 0.0 **** 0.06
35108 H 81.68910717616572 92.65633772585144 30.481307633903953 H 0.0 **** 0.06
35109 H 82.91388604087732 92.93413771977687 31.742654194965922 H 0.0 **** 0.06
35110 H 82.57710731634965 91.27994593648829 31.178177539524626 H 0.0 **** 0.06
35111 C 61.54597392001537 36.498527126218335 15.352301273406411 C 0.0 **** -0.24
35112 H 60.75830376047716 36.45406965648965 16.104154782690443 H 0.0 **** 0.06
35113 H 61.10113988607719 36.475572421587344 14.357716332077516 H 0.0 **** 0.06
35114 H 62.211052565493645 35.642471280410405 15.473079358879048 H 0.0 **** 0.06
35115 H 62.11437344010466 37.41962206301338 15.475810369706352 H 0.0 **** 0.06
35116 C 17.148147882001055 85.74882976622465 82.61491662849447 C 0.0 **** -0.24
35117 H 17.17328812890471 85.58357859304026 83.69187366995807 H 0.0 **** 0.06
35118 H 16.930206214778657 84.80748221006428 82.10887436946066 H 0.0 **** 0.06
35119 H 18.115138301931303 86.12515821655225 82.28228792862826 H 0.0 **** 0.06
35120 H 16.373228454985025 86.4772062697154 82.37756882617124 H 0.0 **** 0.06
35121 C 89.52133194171915 102.15900334142282 49.07652840650523 C 0.0 **** -0.24
35122 H 89.60724504132713 101.73610189248501 50.077620705345694 H 0.0 **** 0.06
35123 H 89.10666627013099 103.16550253215888 49.14221171217825 H 0.0 **** 0.06
35124 H 88.86352551239453 101.53379036409467 48.47333783373685 H 0.0 **** 0.06
35125 H 90.50737701828835 102.20113248738744 48.614156589221665 H 0.0 **** 0.06
35126 C 73.27265789968453 59.14575569404829 89.4142659253837 C 0.0 **** -0.24
35127 H 72.91461449997693 60.007541173453745 88.8517571384732 H 0.0 **** 0.06
35128 H 73.1021142604166 59.30926291988632 90.47797438107231 H 0.0 **** 0.06
35129 H 74.33937558105022 59.012024508180076 89.23319728304193 H 0.0 **** 0.06
35130 H 72.7349828591548 58.25411246148212 89.09194719932341 H 0.0 **** 0.06
35131 C 6.105224259015671 35.00706318802992 38.22857229750849 C 0.0 **** -0.24
35132 H 6.302025547889457 36.045349618152784 37.965241896619204 H 0.0 **** 0.06
35133 H 5.47438732358097 34.97014117259823 39.117527907700946 H 0.0 **** 0.06
35134 H 7.047368378725835 34.497956218385866 38.42917380010232 H 0.0 **** 0.06
35135 H 5.594719109741291 34.51350743158338 37.40045589079381 H 0.0 **** 0.06
35136 C 105.2797021933946 113.51641466941149 69.73259053713518 C 0.0 **** -0.24
35137 H 106.2530165580119 113.11097657917375 69.45464338189034 H 0.0 **** 0.06
35138 H 105.28968930308656 114.60011234885596 69.61151152965654 H 0.0 **** 0.06
35139 H 105.06589317820502 113.26836286973767 70.77153779200178 H 0.0 **** 0.06
35140 H 104.51103700237331 113.08521919697918 69.08961318495334 H 0.0 **** 0.06
35141 C 59.23522650234668 90.21621056405984 53.21016398710239 C 0.0 **** -0.24
35142 H 60.087839728428605 89.78577948607084 53.73415269854716 H 0.0 **** 0.06
35143 H 58.66192366586222 89.42015999149191 52.73462236307407 H 0.0 **** 0.06
35144 H 59.588812470672735 90.91380616887815 52.45027461338155 H 0.0 **** 0.06
35145 H 58.60064316979714 90.744798540734 53.92135046235907 H 0.0 **** 0.06
35146 C 101.9716604719077 35.255332457583506 90.62541768817252 C 0.0 **** -0.24
35147 H 101.9447839616872 36.32963588694321 90.44527546741273 H 0.0 **** 0.06
35148 H 102.98176684658668 34.883135033209214 90.44951785022056 H 0.0 **** 0.06
35149 H 101.27745712681525 34.7555924015241 89.94975426161216 H 0.0 **** 0.06
35150 H 101.68434616305362 35.05290394852574 91.65737731757713 H 0.0 **** 0.06
35151 C 109.68453784659282 8.513000156726534 53.25893343176351 C 0.0 **** -0.24
35152 H 108.87642822776267 7.900707683873335 53.65878243529714 H 0.0 **** 0.06
35153 H 110.38016067739325 7.8798823834462155 52.706825368787406 H 0.0 **** 0.06
35154 H 110.21037188325016 9.001057977862601 54.07959207166671 H 0.0 **** 0.06
35155 H 109.27153193035832 9.267940667625965 52.590791723898036 H 0.0 **** 0.06
35156 C 88.22803927375412 41.111466556753946 30.020939062140137 C 0.0 **** -0.24
35157 H 89.14926204917565 40.561893892387445 30.211585053787502 H 0.0 **** 0.06
35158 H 87.79023661690228 40.76890533370512 29.08267887346738 H 0.0 **** 0.06
35159 H 88.44740543016576 42.17692187677978 29.951983146033058 H 0.0 **** 0.06
35160 H 87.52510062422006 40.93650492049908 30.83500178269363 H 0.0 **** 0.06
35161 C 102.60411983575108 91.26742260721426 106.01812018066687 C 0.0 **** -0.24
35162 H 103.3148434031692 90.44404000791252 105.95155785795862 H 0.0 **** 0.06
35163 H 101.64206399033431 90.95067434862491 105.61318233517687 H 0.0 **** 0.06
35164 H 102.978249446845 92.11701824436014 105.44588349819486 H 0.0 **** 0.06
35165 H 102.48132250265566 91.55795782795937 107.06185703133701 H 0.0 **** 0.06
35166 C 25.37778002998695 41.68168465818681 70.22731027093559 C 0.0 **** -0.24
35167 H 26.44031183941533 41.43947153179519 70.24936534760539 H 0.0 **** 0.06
35168 H 24.843382737754894 40.91925037481555 69.66079199940961 H 0.0 **** 0.06
35169 H 25.235988771779347 42.65275687179344 69.75381326038715 H 0.0 **** 0.06
35170 H 24.991819625493548 41.71460840260656 71.2459255252081 H 0.0 **** 0.06
35171 C 4.702843617741305 128.81246540785838 99.85703412851113 C 0.0 **** -0.24
35172 H 5.325544595547456 129.69345137448983 100.01229739759239 H 0.0 **** 0.06
35173 H 5.239904265186745 128.0941887382968 99.23629743372635 H 0.0 **** 0.06
35174 H 3.7795607104816185 129.10393895164668 99.35818423829339 H 0.0 **** 0.06
35175 H 4.468799921420242 128.35808799705563 100.81934911888851 H 0.0 **** 0.06
35176 C 59.396809520050994 130.12230802597168 25.374185260363582 C 0.0 **** -0.24
35177 H 60.032129429355194 129.5528369330087 26.05271438245672 H 0.0 **** 0.06
35178 H 59.85782208497341 130.15755056310542 24.386485449370085 H 0.0 **** 0.06
35179 H 59.27518090260125 131.1364192946799 25.755566061273107 H 0.0 **** 0.06
35180 H 58.42025336065049 129.64249204450653 25.30322606867761 H 0.0 **** 0.06
35181 C 62.574784550901924 20.600811634350265 56.28339612941758 C 0.0 **** -0.24
35182 H 62.338052729589876 19.543238323389993 56.16409716970209 H 0.0 **** 0.06
35183 H 62.88571268247151 21.013202595950276 55.32343682272629 H 0.0 **** 0.06
35184 H 63.38252994753563 20.712365899880147 57.00646422341741 H 0.0 **** 0.06
35185 H 61.69189587936499 21.132226273110888 56.64003824715269 H 0.0 **** 0.06
35186 C 114.21702307178053 120.03108705937882 2.558028297611912 C 0.0 **** -0.24
35187 H 115.08813934561779 119.92079870382533 1.9105427722295474 H 0.0 **** 0.06
35188 H 114.4324371440906 119.59681263560104 3.534399632156564 H 0.0 **** 0.06
35189 H 113.36513164073268 119.51866512765031 2.1108535755152786 H 0.0 **** 0.06
35190 H 113.9837248726022 121.08981418044533 2.673459376483862 H 0.0 **** 0.06
35191 C 77.04787942002129 68.8685263955856 2.129825948903374 C 0.0 **** -0.24
35192 H 78.06377366366021 68.48057706791879 2.1986055123036863 H 0.0 **** 0.06
35193 H 76.38005986483482 68.07948654451228 1.783217151465351 H 0.0 **** 0.06
35194 H 77.02417172664575 69.70081516231014 1.4261613690481454 H 0.0 **** 0.06
35195 H 76.72351242494439 69.21322680760127 3.1113197627962563 H 0.0 **** 0.06
35196 C 59.641544106030935 127.47050378265979 113.60974317441784 C 0.0 **** -0.24
35197 H 59.88318037138872 127.08932799861353 114.60129162839186 H 0.0 **** 0.06
35198 H 59.46728874562926 126.63412787058442 112.93169969622224 H 0.0 **** 0.06
35199 H 60.47293335986794 128.0713277675358 113.23914366286547 H 0.0 **** 0.06
35200 H 58.74492498686715 128.08726079025283 113.66566617020854 H 0.0 **** 0.06
35201 C 0.8168006926289593 49.542833309876414 41.731460128619915 C 0.0 **** -0.24
35202 H -0.037564237603731954 49.094790435455025 41.22464597433037 H 0.0 **** 0.06
35203 H 0.522854686743699 50.49941875498655 42.1622215947026 H 0.0 **** 0.06
35204 H 1.6232913890639509 49.69889551756262 41.01430612219116 H 0.0 **** 0.06
35205 H 1.158594937623917 48.87702613492115 42.523922727402294 H 0.0 **** 0.06
35206 C 55.093359711007935 42.44312829945292 46.59691674351377 C 0.0 **** -0.24
35207 H 55.034422138538844 42.80793574521536 45.57161369414467 H 0.0 **** 0.06
35208 H 55.60144047017607 41.478505577510276 46.61008701586334 H 0.0 **** 0.06
35209 H 54.0865693720107 42.32984665812816 46.99968340676918 H 0.0 **** 0.06
35210 H 55.64933059861497 43.15647411162469 47.204514093917766 H 0.0 **** 0.06
35211 C 46.6045739738708 114.14111472815392 87.28921350872702 C 0.0 **** -0.24
35212 H 46.15133618491603 113.38154446761246 86.6524938076284 H 0.0 **** 0.06
35213 H 46.5180943924951 115.11569394100371 86.80929676426132 H 0.0 **** 0.06
35214 H 47.657458051657585 113.90420945362433 87.4439762606892 H 0.0 **** 0.06
35215 H 46.09107302299489 114.16163987737991 88.25117818502648 H 0.0 **** 0.06
35216 C 25.477976407445965 19.675948184938306 110.42076253289929 C 0.0 **** -0.24
35217 H 26.474284196616566 19.78879024935005 110.84931588867782 H 0.0 **** 0.06
35218 H 25.534712202032324 19.775246611567496 109.33689154061628 H 0.0 **** 0.06
35219 H 24.821065431212446 20.446519491376677 110.82283744836839 H 0.0 **** 0.06
35220 H 25.083329708617896 18.691906755676158 110.67601139507241 H 0.0 **** 0.06
35221 C 108.78576864257815 110.58004845477544 39.3411184498388 C 0.0 **** -0.24
35222 H 108.26754315964826 110.66389853491532 38.386213247702194 H 0.0 **** 0.06
35223 H 108.25031326719335 109.88058213104024 39.98407485804621 H 0.0 **** 0.06
35224 H 108.82614608240021 111.55755120872942 39.8206103052252 H 0.0 **** 0.06
35225 H 109.79959871597333 110.2163619858454 39.172357577435044 H 0.0 **** 0.06
35226 C 107.46098053265155 4.275890217979846 33.060022665222164 C 0.0 **** -0.24
35227 H 107.06443404091053 5.287298707384494 33.15495568887005 H 0.0 **** 0.06
35228 H 106.91706518700103 3.6088201821031873 33.72897269762339 H 0.0 **** 0.06
35229 H 108.51779721245168 4.27427294501603 33.32411976091831 H 0.0 **** 0.06
35230 H 107.34301677124334 3.9355854711488156 32.03128572340765 H 0.0 **** 0.06
35231 C 80.53444967142366 39.02811777568559 32.634839705292336 C 0.0 **** -0.24
35232 H 79.55587709679614 39.50728793340045 32.60308829317643 H 0.0 **** 0.06
35233 H 80.61941471225208 38.435803977538 33.54650293069352 H 0.0 **** 0.06
35234 H 81.31284574943064 39.79165588940114 32.622485882161925 H 0.0 **** 0.06
35235 H 80.64876068746347 38.378157529093045 31.767255043370426 H 0.0 **** 0.06
35236 C 104.04225254493772 86.10324236023955 97.28714019363014 C 0.0 **** -0.24
35237 H 104.31239020650594 86.56894137618258 96.33842651659631 H 0.0 **** 0.06
35238 H 103.3740070203404 86.76519132951637 97.83941099832725 H 0.0 **** 0.06
35239 H 104.94246548608768 85.92364585691509 97.87285607346988 H 0.0 **** 0.06
35240 H 103.53781171156783 85.15562940011486 97.09497707724324 H 0.0 **** 0.06
35241 C 129.13791846360172 41.37692395690857 31.07999854108754 C 0.0 **** -0.24
35242 H 128.84601120925643 40.32748618269855 31.127904939075982 H 0.0 **** 0.06
35243 H 129.87683869092447 41.51332470249341 30.290418779022197 H 0.0 **** 0.06
35244 H 129.56642814009186 41.67786550509186 32.03612150684538 H 0.0 **** 0.06
35245 H 128.25991274121608 41.98790471469087 30.866810781638932 H 0.0 **** 0.06
35246 C 33.43252557184799 9.480519578498615 105.28728056246409 C 0.0 **** -0.24
35247 H 34.48231664080868 9.436698785110053 105.57692673731036 H 0.0 **** 0.06
35248 H 32.95518316560333 10.328055528886097 105.779047279858 H 0.0 **** 0.06
35249 H 32.93491683239317 8.558281196461309 105.58622762379119 H 0.0 **** 0.06
35250 H 33.359138921287006 9.597930944341101 104.20563528896227 H 0.0 **** 0.06
35251 C 88.63880659323985 109.05590665125794 56.80659218588386 C 0.0 **** -0.24
35252 H 88.43495212900939 109.18339759398879 57.87003608253757 H 0.0 **** 0.06
35253 H 87.69935329600321 108.92799207006453 56.26903305350663 H 0.0 **** 0.06
35254 H 89.26443975348053 108.17443197104734 56.660287357971896 H 0.0 **** 0.06
35255 H 89.15829840892025 109.9366208355629 56.427556158677746 H 0.0 **** 0.06
35256 C 37.24317446653657 67.59932737653578 86.74023790764417 C 0.0 **** -0.24
35257 H 38.05846148499748 66.94580605208839 87.05048365205292 H 0.0 **** 0.06
35258 H 36.28976906912635 67.1346677735843 86.99285046641782 H 0.0 **** 0.06
35259 H 37.29541849521652 67.75920432337185 85.66282088078015 H 0.0 **** 0.06
35260 H 37.32865422385902 68.55695493777873 87.25361897891153 H 0.0 **** 0.06
35261 C 79.2086585994 89.4509074938457 31.02615391361951 C 0.0 **** -0.24
35262 H 78.97149786050159 89.25922070782673 32.072338120822536 H 0.0 **** 0.06
35263 H 78.28823453717916 89.6513405361232 30.475843339487938 H 0.0 **** 0.06
35264 H 79.70360943496814 88.5775485097293 30.599855542785775 H 0.0 **** 0.06
35265 H 79.87071886505558 90.31408559331305 30.95496217695998 H 0.0 **** 0.06
35266 C 36.664358246957164 110.61022899876927 58.287576557949194 C 0.0 **** -0.24
35267 H 37.18480778593454 110.02463137712623 57.529236122764246 H 0.0 **** 0.06
35268 H 36.50467931460298 109.99556153725804 59.174525330799554 H 0.0 **** 0.06
35269 H 35.70179682225728 110.93855419609503 57.895003562490956 H 0.0 **** 0.06
35270 H 37.26549661755587 111.4800554052079 58.55121289135435 H 0.0 **** 0.06
35271 C 98.89900075345928 129.45783562672355 55.575945049180376 C 0.0 **** -0.24
35272 H 99.32796148049309 128.49490394418825 55.85359186070774 H 0.0 **** 0.06
35273 H 97.8838637306924 129.53020051396527 55.96736383396971 H 0.0 **** 0.06
35274 H 98.8756785941164 129.54512993682582 54.48913121114204 H 0.0 **** 0.06
35275 H 99.50726100044 130.26060538447504 55.99164038039983 H 0.0 **** 0.06
35276 C 44.08591388721757 50.58537671961386 39.00079588684832 C 0.0 **** -0.24
35277 H 43.14374507528834 50.44054361612672 39.52961039389106 H 0.0 **** 0.06
35278 H 44.64198317351787 49.647531738705595 38.98592108316416 H 0.0 **** 0.06
35279 H 44.674685827893825 51.34969100635823 39.509366254891574 H 0.0 **** 0.06
35280 H 43.883866588209884 50.904496207450904 37.97848131027547 H 0.0 **** 0.06
35281 C 55.849322283844685 128.77978165979283 60.80320773321546 C 0.0 **** -0.24
35282 H 55.282254860470914 129.64972871617965 60.473071269405125 H 0.0 **** 0.06
35283 H 56.178970969351525 128.9292707306974 61.83200572423942 H 0.0 **** 0.06
35284 H 56.71855747842315 128.6477652731549 60.15871930475498 H 0.0 **** 0.06
35285 H 55.21841779331589 127.89275350255768 60.74891201285919 H 0.0 **** 0.06
35286 C 47.84416619476319 85.23216702709595 68.69403048503318 C 0.0 **** -0.24
35287 H 48.120092395828465 86.20025465925784 68.2748377003054 H 0.0 **** 0.06
35288 H 46.77591290971313 85.22153502582906 68.9119717314494 H 0.0 **** 0.06
35289 H 48.40550629845812 85.0606191994779 69.61293534739545 H 0.0 **** 0.06
35290 H 48.07598757011186 84.44575569033432 67.97494523683514 H 0.0 **** 0.06
35291 C 117.74533543588889 66.3156795940563 112.48033247326629 C 0.0 **** -0.24
35292 H 118.54835920210895 65.76964010838917 112.97541850761979 H 0.0 **** 0.06
35293 H 117.56367678037894 65.88116651103097 111.49708275421818 H 0.0 **** 0.06
35294 H 118.03183522746463 67.361030760247 112.36926840791477 H 0.0 **** 0.06
35295 H 116.83754490183478 66.25018163271297 113.08078719987151 H 0.0 **** 0.06
35296 C 49.227073372312645 39.781756690454785 37.60169808429589 C 0.0 **** -0.24
35297 H 48.54001728219674 40.33027027207005 38.246971139627675 H 0.0 **** 0.06
35298 H 49.85071449294003 40.48776904415166 37.0524250797059 H 0.0 **** 0.06
35299 H 48.657031477874966 39.175298089052205 36.897766495428215 H 0.0 **** 0.06
35300 H 49.85876947070352 39.134728370866185 38.210535400384344 H 0.0 **** 0.06
35301 C 5.132021868130806 83.11256428728242 129.45872534957527 C 0.0 **** -0.24
35302 H 5.865217060985884 82.392366391058 129.82262135317694 H 0.0 **** 0.06
35303 H 5.5943446054297965 83.7514676315585 128.70536703479735 H 0.0 **** 0.06
35304 H 4.7820770925197 83.72496592808642 130.28962506807835 H 0.0 **** 0.06
35305 H 4.2881472562993395 82.58173082976786 129.01871635335624 H 0.0 **** 0.06
35306 C 90.48122309786999 120.35388256623855 94.3693835681423 C 0.0 **** -0.24
35307 H 90.14008246762927 120.34846647390214 95.40388157273685 H 0.0 **** 0.06
35308 H 91.21364045729158 121.15028337945054 94.23166605700808 H 0.0 **** 0.06
35309 H 89.63225467030628 120.52248332387242 93.7077229302549 H 0.0 **** 0.06
35310 H 90.94070406167685 119.39324796059498 94.13342816409977 H 0.0 **** 0.06
35311 C 66.13346843414047 103.75177088488213 81.18374970177004 C 0.0 **** -0.24
35312 H 65.52090757380842 102.85219080302967 81.12752415328178 H 0.0 **** 0.06
35313 H 65.72426965859245 104.51108532112117 80.51734635673854 H 0.0 **** 0.06
35314 H 67.15387256889369 103.5146210712812 80.88357840499708 H 0.0 **** 0.06
35315 H 66.13340599049775 104.12732607300605 82.20727732576748 H 0.0 **** 0.06
35316 C 61.40655941742979 88.77893462584763 57.09039110293736 C 0.0 **** -0.24
35317 H 60.75222498736264 89.43188009989575 56.51310771383119 H 0.0 **** 0.06
35318 H 62.33946984960019 89.29995130671591 57.306844892714835 H 0.0 **** 0.06
35319 H 61.61878310658051 87.87724402758522 56.51449898470642 H 0.0 **** 0.06
35320 H 60.916216666298766 88.50590526425412 58.024246212581716 H 0.0 **** 0.06
35321 C 68.97595043435251 110.95633960589574 98.15824326897746 C 0.0 **** -0.24
35322 H 68.5544412066595 111.53390752990808 97.3354986322972 H 0.0 **** 0.06
35323 H 70.05894863781774 111.07644302935128 98.16851411021472 H 0.0 **** 0.06
35324 H 68.72840357649972 109.9029309492618 98.02598880266996 H 0.0 **** 0.06
35325 H 68.56056844802953 111.31201555141764 99.10099078612578 H 0.0 **** 0.06
35326 C 8.00747294294834 65.70554320839602 31.24890746973324 C 0.0 **** -0.24
35327 H 8.99013255779289 65.23564805833365 31.278063128861362 H 0.0 **** 0.06
35328 H 7.791604340407787 66.15666888324421 32.217638013671404 H 0.0 **** 0.06
35329 H 7.251512788888277 64.95405988192726 31.021609181097404 H 0.0 **** 0.06
35330 H 7.996396107244848 66.47663484216577 30.477833847809876 H 0.0 **** 0.06
35331 C 40.24621018152567 112.20609273673169 71.18622692284083 C 0.0 **** -0.24
35332 H 40.96290405529507 111.69179635290465 71.82562470807358 H 0.0 **** 0.06
35333 H 40.47397205046809 113.27285159630064 71.16929618040686 H 0.0 **** 0.06
35334 H 39.238618747169824 112.05534333173851 71.57552072835898 H 0.0 **** 0.06
35335 H 40.307974305323825 111.80466378058104 70.17427064566843 H 0.0 **** 0.06
35336 C 35.463477527226075 58.563147717530356 18.930397734611816 C 0.0 **** -0.24
35337 H 34.73477394960622 59.34728497935376 18.723399291961925 H 0.0 **** 0.06
35338 H 35.37243032912937 57.775187672096706 18.182415198239454 H 0.0 **** 0.06
35339 H 35.27755690098894 58.14717777247253 19.920785040393035 H 0.0 **** 0.06
35340 H 36.46872282324978 58.98361200855609 18.896160830631132 H 0.0 **** 0.06
35341 C 128.84191846357083 108.90682053110584 58.43466776388442 C 0.0 **** -0.24
35342 H 129.56613491481107 108.0921993199035 58.41212199253107 H 0.0 **** 0.06
35343 H 128.1665149665559 108.76841685381606 59.27927716525397 H 0.0 **** 0.06
35344 H 128.26953809967367 108.91032385980054 57.50735504213367 H 0.0 **** 0.06
35345 H 129.36754563782824 109.85670140253359 58.541821773622075 H 0.0 **** 0.06
35346 C 11.133402045226717 110.96908442461596 117.14774562830354 C 0.0 **** -0.24
35347 H 11.507386984547452 110.85083398512631 118.16443758521655 H 0.0 **** 0.06
35348 H 10.803478111198103 111.99780960602999 116.99985979905063 H 0.0 **** 0.06
35349 H 10.294268381318773 110.29122378234459 116.98746093730438 H 0.0 **** 0.06
35350 H 11.929042303396216 110.73709165353942 116.4397644115021 H 0.0 **** 0.06
35351 C 127.92278058062912 63.98147504580237 100.85567436531568 C 0.0 **** -0.24
35352 H 127.87338122570453 63.06175487983295 100.27266321903495 H 0.0 **** 0.06
35353 H 128.7264120983094 64.61094763987197 100.47315100331056 H 0.0 **** 0.06
35354 H 128.1165302478708 63.738113713393204 101.90047138514402 H 0.0 **** 0.06
35355 H 126.9746660291932 64.51286416168827 100.7761768981993 H 0.0 **** 0.06
35356 C 67.27125932000763 68.19348661331719 107.22214262077046 C 0.0 **** -0.24
35357 H 66.97462806568053 69.23041906232343 107.06164179873818 H 0.0 **** 0.06
35358 H 66.54688179270387 67.53188820214676 106.74614654877058 H 0.0 **** 0.06
35359 H 67.30566127352321 67.98677266540436 108.29187591784626 H 0.0 **** 0.06
35360 H 68.25634818558623 68.0255989847059 106.78712868408161 H 0.0 **** 0.06
35361 C 122.17335756559946 70.01640716739129 16.99672555170193 C 0.0 **** -0.24
35362 H 121.15224200709167 70.29909909278618 17.251793652230646 H 0.0 **** 0.06
35363 H 122.83261588416367 70.23932068074475 17.836210844897067 H 0.0 **** 0.06
35364 H 122.49836097534133 70.5779472321289 16.120414504042486 H 0.0 **** 0.06
35365 H 122.21111237653096 68.94885326534674 16.778629835413852 H 0.0 **** 0.06
35366 C 8.143133929780674 89.90004564883549 36.97238208374111 C 0.0 **** -0.24
35367 H 8.036138350629699 90.29069651698359 35.96052275337695 H 0.0 **** 0.06
35368 H 7.158030628238862 89.66410005670525 37.37648814051103 H 0.0 **** 0.06
35369 H 8.624648760322884 90.64784555193502 37.60153562224498 H 0.0 **** 0.06
35370 H 8.752035765791732 88.99667216311866 36.94979165960541 H 0.0 **** 0.06
35371 C 58.937531506949426 44.97564620293011 89.42226342499089 C 0.0 **** -0.24
35372 H 59.6617509509892 45.54576675773433 88.84029330022702 H 0.0 **** 0.06
35373 H 58.13291199236873 44.63697477487989 88.7690554881296 H 0.0 **** 0.06
35374 H 58.525131568949305 45.60769224311835 90.20848511216292 H 0.0 **** 0.06
35375 H 59.43059013902713 44.11358424993438 89.87028215372362 H 0.0 **** 0.06
35376 C 89.13690984822746 68.7731922037637 81.0504593177354 C 0.0 **** -0.24
35377 H 88.8504030465682 69.50105922149334 81.80908892907351 H 0.0 **** 0.06
35378 H 88.48528760241042 68.87660626113694 80.18197872903909 H 0.0 **** 0.06
35379 H 89.04159953425183 67.7666585225162 81.45856028307401 H 0.0 **** 0.06
35380 H 90.17085733961311 68.94688252633853 80.75166047470589 H 0.0 **** 0.06
35381 C 65.12170098397266 16.26830762259389 7.383030215426178 C 0.0 **** -0.24
35382 H 65.81705965550341 17.084402948474008 7.183567750784643 H 0.0 **** 0.06
35383 H 64.40202537708612 16.582355463294498 8.139254694552804 H 0.0 **** 0.06
35384 H 65.67446379043949 15.401465155171735 7.744925057180481 H 0.0 **** 0.06
35385 H 64.5952795630296 16.006434206667652 6.465738976880488 H 0.0 **** 0.06
35386 C 36.40452998116655 46.914577090136675 50.13386579874788 C 0.0 **** -0.24
35387 H 36.031788420695925 47.15839870794616 49.13857374755128 H 0.0 **** 0.06
35388 H 35.56466082197155 46.83212292754786 50.82465711828934 H 0.0 **** 0.06
35389 H 37.07712844040139 47.70245376308378 50.47309601089384 H 0.0 **** 0.06
35390 H 36.941531184190325 45.967277437778876 50.09874481544105 H 0.0 **** 0.06
35391 C 121.48402925871312 90.41196802714599 16.277508145832332 C 0.0 **** -0.24
35392 H 120.44126679426782 90.63585897052641 16.503434641449097 H 0.0 **** 0.06
35393 H 122.08323611395704 90.525368087197 17.181554661527066 H 0.0 **** 0.06
35394 H 121.84561247889096 91.09914272667575 15.513251044167614 H 0.0 **** 0.06
35395 H 121.56455586602132 89.38771367972198 15.913758293093089 H 0.0 **** 0.06
35396 C 34.43582539492763 121.70437405272938 88.25265769118296 C 0.0 **** -0.24
35397 H 34.866389840482725 122.09550453421664 89.17433695255416 H 0.0 **** 0.06
35398 H 34.07124844713178 122.53097157918683 87.64323122405571 H 0.0 **** 0.06
35399 H 33.60863630501774 121.03667061845493 88.49310059653418 H 0.0 **** 0.06
35400 H 35.19790659645963 121.15403450000483 87.70102368242287 H 0.0 **** 0.06
35401 C 105.18512997468754 14.27155119938007 41.002776438755006 C 0.0 **** -0.24
35402 H 105.62273634189258 14.771833304448819 41.86736883952136 H 0.0 **** 0.06
35403 H 105.88338391846223 13.527544865617273 40.62138112017308 H 0.0 **** 0.06
35404 H 104.97680719967606 15.007682205198165 40.22521014980731 H 0.0 **** 0.06
35405 H 104.25739597429788 13.781772944833165 41.298171666174255 H 0.0 **** 0.06
35406 C 129.6765039383568 107.90746282055343 25.311940774626628 C 0.0 **** -0.24
35407 H 130.23484425476073 107.21426354285254 24.682897600907225 H 0.0 **** 0.06
35408 H 129.17940968441923 107.35519277333583 26.109840895881483 H 0.0 **** 0.06
35409 H 128.93000013485127 108.42584396279429 24.70878438820737 H 0.0 **** 0.06
35410 H 130.36141759057645 108.63546973982349 25.746046352974865 H 0.0 **** 0.06
35411 C 106.51782425607061 4.468196576425385 69.78942061534747 C 0.0 **** -0.24
35412 H 105.46140237455991 4.438687614909497 69.52561498809226 H 0.0 **** 0.06
35413 H 106.72815921218046 5.383224305517501 70.34318494675699 H 0.0 **** 0.06
35414 H 107.12020703170033 4.447138521430645 68.88096090361057 H 0.0 **** 0.06
35415 H 106.76220546192688 3.6044216626260663 70.4076545442193 H 0.0 **** 0.06
35416 C 68.43023536135331 83.25385895624919 102.49178870924936 C 0.0 **** -0.24
35417 H 69.44823420127507 83.2791524191374 102.10418837184244 H 0.0 **** 0.06
35418 H 68.29155432334667 84.0689343955301 103.20318673791539 H 0.0 **** 0.06
35419 H 68.255021295954 82.30162959613762 102.99160837629906 H 0.0 **** 0.06
35420 H 67.72464798157463 83.36660106851099 101.66831851131748 H 0.0 **** 0.06
35421 C 83.79687033540714 55.90465408387254 39.93232885167319 C 0.0 **** -0.24
35422 H 83.10721814962238 55.821310304890744 40.772442630315425 H 0.0 **** 0.06
35423 H 83.2367749112012 56.12442804729508 39.02321939073052 H 0.0 **** 0.06
35424 H 84.33539847426405 54.965082230500656 39.809757931393165 H 0.0 **** 0.06
35425 H 84.5076983244982 56.709010832878164 40.124504087247814 H 0.0 **** 0.06
35426 C 125.84803386203266 37.59030991445012 3.5511229782524083 C 0.0 **** -0.24
35427 H 126.56586969803634 37.960476680140495 2.818709991288614 H 0.0 **** 0.06
35428 H 125.55470735892948 38.40436865119732 4.215026196737114 H 0.0 **** 0.06
35429 H 126.30493622951548 36.790788445877595 4.134192536546852 H 0.0 **** 0.06
35430 H 124.96764051476633 37.20619328608827 3.0352911508781624 H 0.0 **** 0.06
35431 C 125.36685241992316 128.21882217404726 73.01570469762717 C 0.0 **** -0.24
35432 H 126.04117606263694 127.39991080764804 73.26281635829082 H 0.0 **** 0.06
35433 H 124.34192065189742 127.84897199455328 72.98452468277557 H 0.0 **** 0.06
35434 H 125.63532558386734 128.6292832993335 72.0420166964042 H 0.0 **** 0.06
35435 H 125.44827911116117 128.99899030844622 73.77356215897586 H 0.0 **** 0.06
35436 C 98.18170777799139 120.99568093974833 84.80724563774999 C 0.0 **** -0.24
35437 H 98.72554311009492 120.72603264745455 85.71182638211468 H 0.0 **** 0.06
35438 H 97.12357095580683 121.1177363408948 85.0419997674432 H 0.0 **** 0.06
35439 H 98.30041937091164 120.20793486524435 84.06358501278527 H 0.0 **** 0.06
35440 H 98.57630375424333 121.93121638262157 84.41058466183208 H 0.0 **** 0.06
35441 C 112.39629668955922 108.02752035155244 120.95617628344999 C 0.0 **** -0.24
35442 H 111.82259557932139 108.00238658841663 120.03016615793904 H 0.0 **** 0.06
35443 H 113.448793083297 107.84686504582994 120.73607968670736 H 0.0 **** 0.06
35444 H 112.02862541560319 107.25518921816348 121.63151242567727 H 0.0 **** 0.06
35445 H 112.28539137867273 109.00425243180948 121.42678748927662 H 0.0 **** 0.06
35446 C 56.779679419505925 0.8671058422527125 52.60281959402079 C 0.0 **** -0.24
35447 H 55.826174719955134 1.2680982186896443 52.94753601428209 H 0.0 **** 0.06
35448 H 56.93396587502508 -0.1229359197358697 53.03008342524947 H 0.0 **** 0.06
35449 H 57.58696571120586 1.528536643694565 52.91710227041693 H 0.0 **** 0.06
35450 H 56.771444806955685 0.7972040688576101 51.514601112830235 H 0.0 **** 0.06
35451 C 1.989458196920424 22.46544931275008 26.55180293691862 C 0.0 **** -0.24
35452 H 1.2658678422773733 23.267697539104404 26.69690724198972 H 0.0 **** 0.06
35453 H 2.183778617424565 22.3412880618975 25.48574519246884 H 0.0 **** 0.06
35454 H 1.5890701525558768 21.53711783611152 26.95901485164495 H 0.0 **** 0.06
35455 H 2.9178870761959956 22.71649452099615 27.063582697337353 H 0.0 **** 0.06
35456 C 22.578195036239322 128.072699886459 32.25916956901086 C 0.0 **** -0.24
35457 H 22.88597330848262 127.53257341955609 33.1544708593014 H 0.0 **** 0.06
35458 H 23.19026924576707 128.9678628796383 32.146360529061795 H 0.0 **** 0.06
35459 H 21.529615256856573 128.35906832892522 32.34986203473701 H 0.0 **** 0.06
35460 H 22.704980861083413 127.43151383067311 31.38707252952929 H 0.0 **** 0.06
35461 C 101.67943915009957 109.64607967398 70.14010791513037 C 0.0 **** -0.24
35462 H 100.82681323927886 109.63250672247165 70.81915526964603 H 0.0 **** 0.06
35463 H 101.54412843021849 108.8844750117532 69.37279652977246 H 0.0 **** 0.06
35464 H 102.59248829082554 109.44078789954915 70.70031600990133 H 0.0 **** 0.06
35465 H 101.75423173454409 110.62707630218473 69.67128051133291 H 0.0 **** 0.06
35466 C 23.47445989758853 44.030720550921274 121.87369741238675 C 0.0 **** -0.24
35467 H 24.066165590562008 44.40596388566625 121.03912252351633 H 0.0 **** 0.06
35468 H 22.494243582579145 43.720221933567196 121.5132768247189 H 0.0 **** 0.06
35469 H 23.356508139205403 44.819533134835034 122.61720168706613 H 0.0 **** 0.06
35470 H 23.98285596373752 43.17921900433485 122.3250010519094 H 0.0 **** 0.06
35471 C 112.65200626394811 13.373809115309513 14.848465085679038 C 0.0 **** -0.24
35472 H 113.06676595121233 12.952889459182444 13.93214169503591 H 0.0 **** 0.06
35473 H 111.94454989871923 12.667831916548295 15.284156709002275 H 0.0 **** 0.06
35474 H 112.13943905301673 14.308508626109415 14.619377348440537 H 0.0 **** 0.06
35475 H 113.45748640048534 13.565871824568376 15.556793467554542 H 0.0 **** 0.06
35476 C 38.810497387041096 11.882237824336073 97.56771437460137 C 0.0 **** -0.24
35477 H 37.7682477048354 11.562712449120397 97.55907585995544 H 0.0 **** 0.06
35478 H 38.901364518903335 12.838156220075462 97.05127300249092 H 0.0 **** 0.06
35479 H 39.4225840597494 11.136094258475737 97.06216112300685 H 0.0 **** 0.06
35480 H 39.147562374387576 11.991951743875887 98.59819896391772 H 0.0 **** 0.06
35481 C 106.42878491089246 10.077114474196918 23.590808835876516 C 0.0 **** -0.24
35482 H 107.43192899898895 10.197172282114252 24.00086806737295 H 0.0 **** 0.06
35483 H 106.49696956547538 9.79818481894867 22.53932532766015 H 0.0 **** 0.06
35484 H 105.88387109290804 11.016377410173703 23.683666355946997 H 0.0 **** 0.06
35485 H 105.90341021784243 9.296516597111747 24.14158364423747 H 0.0 **** 0.06
35486 C 25.359219028333115 87.65400203370555 13.944152906552166 C 0.0 **** -0.24
35487 H 24.627630001807688 87.656301591783 13.136125877426405 H 0.0 **** 0.06
35488 H 25.89091608090338 88.60550570329035 13.955037988734706 H 0.0 **** 0.06
35489 H 26.069258510829158 86.8413269396885 13.789464128100331 H 0.0 **** 0.06
35490 H 24.846932975323355 87.51377511348451 14.896767709503187 H 0.0 **** 0.06
35491 C 66.51570154231854 97.29968815314015 109.08317130382906 C 0.0 **** -0.24
35492 H 65.74262198006888 98.06923182372458 109.09366430354324 H 0.0 **** 0.06
35493 H 67.48415669439588 97.76044407192313 108.89074983305278 H 0.0 **** 0.06
35494 H 66.29537075230054 96.57498942438323 108.29816769279564 H 0.0 **** 0.06
35495 H 66.53760463021872 96.79374779076227 110.04885040365787 H 0.0 **** 0.06
35496 C 18.80768345557823 63.54380417690351 32.345438281656754 C 0.0 **** -0.24
35497 H 19.81662860642097 63.27340524434808 32.656845679071154 H 0.0 **** 0.06
35498 H 18.441854881682147 62.81304147210963 31.6230319668309 H 0.0 **** 0.06
35499 H 18.821263182453322 64.53293358716863 31.88700714724989 H 0.0 **** 0.06
35500 H 18.149816394932024 63.55506292275439 33.214691791300744 H 0.0 **** 0.06
35501 C 106.0845332338956 85.52952603348777 69.38776575952987 C 0.0 **** -0.24
35502 H 107.14900520398612 85.2957876198237 69.38665761385367 H 0.0 **** 0.06
35503 H 105.73379812467473 85.61754966685962 70.41642568275506 H 0.0 **** 0.06
35504 H 105.53796721645179 84.73209734426356 68.88476524486184 H 0.0 **** 0.06
35505 H 105.91839584671644 86.4707093676175 68.86425861021874 H 0.0 **** 0.06
35506 C 109.34802258681935 20.06978959610936 35.997916322209505 C 0.0 **** -0.24
35507 H 109.39788144145598 18.98204601070148 35.95112483595602 H 0.0 **** 0.06
35508 H 110.31592256944077 20.464779064903922 36.30684580124438 H 0.0 **** 0.06
35509 H 108.58727096850512 20.3675804187761 36.72039548684285 H 0.0 **** 0.06
35510 H 109.09073070546393 20.46413609854804 35.01542961434683 H 0.0 **** 0.06
35511 C 11.148225504664339 74.01894933729213 41.34928100107129 C 0.0 **** -0.24
35512 H 11.614682150342318 73.94854060246374 40.36654436847289 H 0.0 **** 0.06
35513 H 11.887496623999098 73.79494790337995 42.118471519318064 H 0.0 **** 0.06
35514 H 10.328273116441892 73.30379243540307 41.413624964993346 H 0.0 **** 0.06
35515 H 10.763093265223986 75.02769782430377 41.497098787727396 H 0.0 **** 0.06
35516 C 75.58116741258351 101.20264131872464 5.992756793918289 C 0.0 **** -0.24
35517 H 76.28512193498017 101.68645632362117 6.669854674887603 H 0.0 **** 0.06
35518 H 74.68998362370638 101.82291277883256 5.890863180742173 H 0.0 **** 0.06
35519 H 75.3017199505014 100.22799889598295 6.394767762580329 H 0.0 **** 0.06
35520 H 76.04784414114613 101.07319727646185 5.015541557462967 H 0.0 **** 0.06
35521 C 68.30805321365202 102.43055672068834 103.32305937125966 C 0.0 **** -0.24
35522 H 69.18746952594239 101.80434030995544 103.17096907908416 H 0.0 **** 0.06
35523 H 68.49381358673111 103.12304712054166 104.143755765197 H 0.0 **** 0.06
35524 H 67.45115382749361 101.80059884864339 103.56466456386602 H 0.0 **** 0.06
35525 H 68.10061258782468 102.99222378102631 102.41236570354084 H 0.0 **** 0.06
35526 C 43.13933350400606 56.02161880083425 18.71364132711389 C 0.0 **** -0.24
35527 H 43.99572008897553 56.69570721789587 18.692397488866987 H 0.0 **** 0.06
35528 H 43.48797110486623 54.98915259948308 18.673170401124764 H 0.0 **** 0.06
35529 H 42.49782559091739 56.22301250334827 17.855722540475853 H 0.0 **** 0.06
35530 H 42.576602891556206 56.17910842722712 19.634336609802148 H 0.0 **** 0.06
35531 C 39.39958545987512 2.668337095715401 48.87029882385832 C 0.0 **** -0.24
35532 H 39.91054645425579 3.351384598023543 48.192356795927765 H 0.0 **** 0.06
35533 H 39.646474765828884 2.9273555305025525 49.90037777565067 H 0.0 **** 0.06
35534 H 39.71925956666404 1.6464854883150224 48.665273838510075 H 0.0 **** 0.06
35535 H 38.32304583580829 2.749133604841262 48.72327918436207 H 0.0 **** 0.06
35536 C 95.19936451336253 5.229427898403287 51.67774932867208 C 0.0 **** -0.24
35537 H 95.56247990479257 6.150265723308337 51.22024693699892 H 0.0 **** 0.06
35538 H 94.8196694757346 4.5639783970152905 50.9014734803513 H 0.0 **** 0.06
35539 H 94.39872959126826 5.4645103420852195 52.37911188877504 H 0.0 **** 0.06
35540 H 96.0170050473919 4.741533756247577 52.208381720569676 H 0.0 **** 0.06
35541 C 51.073554273436 9.444704800049465 98.81169783801377 C 0.0 **** -0.24
35542 H 50.1184931807376 9.162033263421165 99.25512383305664 H 0.0 **** 0.06
35543 H 51.68485074812699 8.553369701879376 98.6662265323726 H 0.0 **** 0.06
35544 H 51.591521686907356 10.13625209227007 99.47508949285583 H 0.0 **** 0.06
35545 H 50.89867178865407 9.926337229607554 97.84942718365505 H 0.0 **** 0.06
35546 C 63.24438168906471 97.48676459296925 72.94019706022738 C 0.0 **** -0.24
35547 H 64.29938253481902 97.21323091967804 72.9007371117996 H 0.0 **** 0.06
35548 H 63.15127781146634 98.5253022614879 73.26055739952898 H 0.0 **** 0.06
35549 H 62.72806538491494 96.83950333806527 73.64776875587185 H 0.0 **** 0.06
35550 H 62.80222140429072 97.37146391655008 71.95056808441822 H 0.0 **** 0.06
35551 C 25.550281639913173 94.34000118799713 112.45511411027636 C 0.0 **** -0.24
35552 H 26.638240700163827 94.39553539445131 112.45204343808604 H 0.0 **** 0.06
35553 H 25.18860085839932 94.22248606346858 111.43293127216 H 0.0 **** 0.06
35554 H 25.141313423718003 95.2557503710097 112.88233292591009 H 0.0 **** 0.06
35555 H 25.231740053232656 93.48610454707119 113.05383216415167 H 0.0 **** 0.06
35556 C 98.907487692296 39.48599593803306 106.86966519008372 C 0.0 **** -0.24
35557 H 99.1303484408142 40.208732810887255 106.08589426124756 H 0.0 **** 0.06
35558 H 99.68422397512535 38.72044192863689 106.88964942844714 H 0.0 **** 0.06
35559 H 97.94239417970527 39.02058563343948 106.67011766486216 H 0.0 **** 0.06
35560 H 98.87417919308956 39.994733268554086 107.83355802280934 H 0.0 **** 0.06
35561 C 84.5309113108562 97.842093152652 71.50928284235505 C 0.0 **** -0.24
35562 H 84.35428955238655 97.1115158588718 70.7194188779676 H 0.0 **** 0.06
35563 H 83.63793610567612 98.45385480841244 71.64467684017507 H 0.0 **** 0.06
35564 H 85.36967987260411 98.48039974534173 71.23178066921564 H 0.0 **** 0.06
35565 H 84.76087613830217 97.32371279155542 72.43924969984539 H 0.0 **** 0.06
35566 C 53.601960209774205 36.928954479620046 28.938442398735987 C 0.0 **** -0.24
35567 H 53.81666189933901 36.819085137465336 27.87503493580678 H 0.0 **** 0.06
35568 H 52.7074934967125 36.35860799604289 29.188301639851232 H 0.0 **** 0.06
35569 H 53.439499075085564 37.981885206339385 29.169292453663957 H 0.0 **** 0.06
35570 H 54.44545411359236 36.555611206655726 29.518140801446492 H 0.0 **** 0.06
35571 C 115.20542824172087 7.570377741249331 69.53310019278382 C 0.0 **** -0.24
35572 H 115.8437857080301 7.000653819337344 68.85862424349327 H 0.0 **** 0.06
35573 H 115.32094719837774 8.635082869818206 69.32915448008285 H 0.0 **** 0.06
35574 H 115.49118635049864 7.364470017117128 70.5642111150967 H 0.0 **** 0.06
35575 H 114.16522405853728 7.282044401646061 69.37814641896315 H 0.0 **** 0.06
35576 C 63.10201279881343 92.58590000631507 62.63289321056426 C 0.0 **** -0.24
35577 H 63.253782861960886 93.20361418950647 61.74675236212863 H 0.0 **** 0.06
35578 H 63.92596515272611 92.74028521518582 63.329352956598754 H 0.0 **** 0.06
35579 H 63.06393703713081 91.53654993038539 62.34038316511841 H 0.0 **** 0.06
35580 H 62.16314748283834 92.86415559712873 63.11216791471762 H 0.0 **** 0.06
35581 C 50.44643425982673 47.588831989748485 29.01214666786845 C 0.0 **** -0.24
35582 H 50.03099457468063 46.58100063153799 29.006289635496643 H 0.0 **** 0.06
35583 H 51.023017879088044 47.74879589900672 28.09986904036967 H 0.0 **** 0.06
35584 H 51.09634244769795 47.709825169051925 29.878428049291415 H 0.0 **** 0.06
35585 H 49.63507797286462 48.315262351549705 29.061048517334797 H 0.0 **** 0.06
35586 C 110.50773032460908 90.19655424017061 49.599770897340875 C 0.0 **** -0.24
35587 H 110.06332068195054 91.06731590801874 49.11846474048133 H 0.0 **** 0.06
35588 H 110.68625853549557 89.42111855630506 48.85502420753289 H 0.0 **** 0.06
35589 H 109.82911467919794 89.81791299193719 50.36384423012777 H 0.0 **** 0.06
35590 H 111.4534574617904 90.48145861333794 50.06273120936498 H 0.0 **** 0.06
35591 C 26.64878415223714 128.2935806108088 114.0471746330346 C 0.0 **** -0.24
35592 H 26.25672513215153 127.2776328050102 113.99713200149422 H 0.0 **** 0.06
35593 H 25.99195579186852 128.9071027469944 114.66441251502782 H 0.0 **** 0.06
35594 H 26.699134767055796 128.7114957111783 113.04204567669471 H 0.0 **** 0.06
35595 H 27.64768543728198 128.276051797174 114.48426671975407 H 0.0 **** 0.06
35596 C 97.65029024084822 85.74286883102184 28.017698572226976 C 0.0 **** -0.24
35597 H 97.55316151615324 84.94887585545149 28.757436753985303 H 0.0 **** 0.06
35598 H 98.41444045878842 85.46966355782214 27.290242199942064 H 0.0 **** 0.06
35599 H 97.93545739610761 86.67056822787038 28.514542643693247 H 0.0 **** 0.06
35600 H 96.69650375032933 85.88147590480244 27.507765315016727 H 0.0 **** 0.06
35601 C 125.02246321279374 56.138633442115065 116.24613074987138 C 0.0 **** -0.24
35602 H 125.728460333601 56.961671760087995 116.13802233602678 H 0.0 **** 0.06
35603 H 125.01238578609232 55.80247698434033 117.28289434117255 H 0.0 **** 0.06
35604 H 125.32357823337249 55.31478642551383 115.59957427931712 H 0.0 **** 0.06
35605 H 124.02521058564128 56.47698585954612 115.9638643143368 H 0.0 **** 0.06
35606 C 91.11198087520985 80.51288027720352 33.05350710232244 C 0.0 **** -0.24
35607 H 92.03682497062896 79.99007812880939 33.297215492935976 H 0.0 **** 0.06
35608 H 90.51778444760289 80.64252993006369 33.958342485541294 H 0.0 **** 0.06
35609 H 90.54576854106463 79.93025132255718 32.3272182255499 H 0.0 **** 0.06
35610 H 91.34796135479327 81.48989680199651 32.630702840228395 H 0.0 **** 0.06
35611 C 74.28774008891615 63.18995028573718 109.4770758229759 C 0.0 **** -0.24
35612 H 75.00156579437709 62.56519225793596 108.940546496725 H 0.0 **** 0.06
35613 H 73.85513201267592 62.622032357564734 110.30034425578526 H 0.0 **** 0.06
35614 H 73.49658370140371 63.504617104695484 108.79569788402324 H 0.0 **** 0.06
35615 H 74.79859832728013 64.06958768364422 109.8701323600248 H 0.0 **** 0.06
35616 C 92.13790502052308 49.50353744332031 103.11497411403795 C 0.0 **** -0.24
35617 H 91.13900848798716 49.07305835482495 103.04246924586187 H 0.0 **** 0.06
35618 H 92.06267324507286 50.540618405920185 103.44185134395332 H 0.0 **** 0.06
35619 H 92.62194064926604 49.463147981629646 102.13922482970153 H 0.0 **** 0.06
35620 H 92.72587601597002 48.93520681163008 103.83624099796646 H 0.0 **** 0.06
35621 C 43.04117887021135 77.78223457839132 108.54075071545844 C 0.0 **** -0.24
35622 H 42.77337349837945 76.94476087858052 109.18498247141076 H 0.0 **** 0.06
35623 H 43.61334617108029 77.41667262613197 107.68778557305677 H 0.0 **** 0.06
35624 H 43.64244930967595 78.49578830526534 109.1038691661567 H 0.0 **** 0.06
35625 H 42.13318275037398 78.27233120881584 108.18655314201146 H 0.0 **** 0.06
35626 C 89.85321953195688 104.22097966620635 101.2873015006723 C 0.0 **** -0.24
35627 H 90.82723569208032 103.96956787383886 100.86751929308554 H 0.0 **** 0.06
35628 H 89.09979826543712 104.19054227804935 100.50047915387267 H 0.0 **** 0.06
35629 H 89.89117462060365 105.22116144848695 101.71805461015492 H 0.0 **** 0.06
35630 H 89.5970549879827 103.50070334525549 102.06474426933755 H 0.0 **** 0.06
35631 C 9.901539876011611 22.48284260081583 117.59406932449323 C 0.0 **** -0.24
35632 H 8.998593873352092 21.872477529858486 117.59250328097926 H 0.0 **** 0.06
35633 H 10.77254475721935 21.842474064777264 117.73541690343689 H 0.0 **** 0.06
35634 H 9.84897895609771 23.20912625118234 118.40484972097077 H 0.0 **** 0.06
35635 H 9.986772789413067 23.007966348615838 116.64150436705651 H 0.0 **** 0.06
35636 C 113.36054768520381 110.85268568784025 2.7161673524563916 C 0.0 **** -0.24
35637 H 112.58463868929897 110.27410865421285 2.2145954928806937 H 0.0 **** 0.06
35638 H 113.23053660970163 110.7751103178275 3.796070916842325 H 0.0 **** 0.06
35639 H 113.28641981423812 111.89718334282328 2.41515220341606 H 0.0 **** 0.06
35640 H 114.34031633337764 110.46296694861113 2.438662017253037 H 0.0 **** 0.06
35641 C 100.34395221806696 62.039330436058776 118.26923186490944 C 0.0 **** -0.24
35642 H 99.81936245115389 61.538194136502 119.08204389326015 H 0.0 **** 0.06
35643 H 99.69046621278696 62.790115091902976 117.82341689459888 H 0.0 **** 0.06
35644 H 100.6265058780439 61.30709973777272 117.5128727557734 H 0.0 **** 0.06
35645 H 101.23980974663866 62.52243659679726 118.65937696501126 H 0.0 **** 0.06
35646 C 28.451802898359432 27.475140498904167 60.951550724492606 C 0.0 **** -0.24
35647 H 27.430131292933567 27.76801298409829 61.19483521913088 H 0.0 **** 0.06
35648 H 29.072703137491857 28.36701742988818 60.86267471488404 H 0.0 **** 0.06
35649 H 28.458455750705156 26.93120757112488 60.00774984560098 H 0.0 **** 0.06
35650 H 28.843784903340776 26.836311722605934 61.743060913760985 H 0.0 **** 0.06
35651 C 40.67106467084514 69.19061810191542 35.96878412896808 C 0.0 **** -0.24
35652 H 41.413768583187654 68.62195425019125 36.52950229717629 H 0.0 **** 0.06
35653 H 40.893601082724565 70.25474547197729 36.047707865696395 H 0.0 **** 0.06
35654 H 39.680069622730166 68.99389182559183 36.37672285625098 H 0.0 **** 0.06
35655 H 40.70015392631221 68.89051026548925 34.92125915173409 H 0.0 **** 0.06
35656 C 63.4517832482573 114.71587425195185 11.171882658813558 C 0.0 **** -0.24
35657 H 63.84783539730611 115.4370456644445 11.886722465820128 H 0.0 **** 0.06
35658 H 64.17622430540305 114.56175983381155 10.371509352251934 H 0.0 **** 0.06
35659 H 62.5204158772693 115.09528500122411 10.751474790936072 H 0.0 **** 0.06
35660 H 63.26312034028072 113.76985404580466 11.678589182789324 H 0.0 **** 0.06
35661 C 128.70020139072403 118.72662212688414 92.88109547076525 C 0.0 **** -0.24
35662 H 129.25162235317364 119.62270530397487 93.16686874591701 H 0.0 **** 0.06
35663 H 128.21871875763983 118.88876635112078 91.91644878653332 H 0.0 **** 0.06
35664 H 127.94234956786649 118.51211740238429 93.63387880457125 H 0.0 **** 0.06
35665 H 129.38777380011194 117.88508476969761 92.80685642684145 H 0.0 **** 0.06
35666 C 67.06645038837438 77.85504719862234 57.698449217333405 C 0.0 **** -0.24
35667 H 67.14317845356095 77.57920276612373 56.64680093310744 H 0.0 **** 0.06
35668 H 66.50230011952131 77.0905709050237 58.232964845522815 H 0.0 **** 0.06
35669 H 66.55438387371191 78.81371009639388 57.78636879165026 H 0.0 **** 0.06
35670 H 68.0655563352193 77.93646342919116 58.12677057462031 H 0.0 **** 0.06
35671 C 34.17474871126285 86.14532589289199 67.1280411495107 C 0.0 **** -0.24
35672 H 34.15964722506422 85.05656408662308 67.18928015242781 H 0.0 **** 0.06
35673 H 34.9820088775308 86.53276329694384 67.75100571508713 H 0.0 **** 0.06
35674 H 33.22299720357924 86.54253945013984 67.47874735618393 H 0.0 **** 0.06
35675 H 34.33755430922437 86.44887689233539 66.09373577084014 H 0.0 **** 0.06
35676 C 46.6442441491898 119.49591394773753 9.54240166510591 C 0.0 **** -0.24
35677 H 46.978235773988445 118.64477655882746 8.94998699242991 H 0.0 **** 0.06
35678 H 47.49006907794123 119.9102335506769 10.092110670819888 H 0.0 **** 0.06
35679 H 45.87747699157694 119.17097536810832 10.245884807817028 H 0.0 **** 0.06
35680 H 46.232313413011326 120.25879168513178 8.882325112669683 H 0.0 **** 0.06
35681 C 67.43804696329843 106.11873751332473 126.23471594109165 C 0.0 **** -0.24
35682 H 66.51723843564014 106.04631939911957 126.81421209216637 H 0.0 **** 0.06
35683 H 67.54024732666971 107.13031799754 125.84103013444317 H 0.0 **** 0.06
35684 H 67.40326196182033 105.4085177714102 125.40841671699488 H 0.0 **** 0.06
35685 H 68.28876967617217 105.88934867089046 126.87649713560853 H 0.0 **** 0.06
35686 C 97.07743989348273 72.7722655222035 46.07894213038939 C 0.0 **** -0.24
35687 H 97.8150856823523 71.97262641552294 46.14368344909372 H 0.0 **** 0.06
35688 H 96.31467484659791 72.62492160332829 46.84377593209835 H 0.0 **** 0.06
35689 H 96.61147474449936 72.75675735383851 45.09306763837922 H 0.0 **** 0.06
35690 H 97.56828091079896 73.7325710683919 46.23320086262704 H 0.0 **** 0.06
35691 C 124.82408742037114 112.81928345855073 39.01702009298515 C 0.0 **** -0.24
35692 H 124.59337201148367 113.73064379301815 38.46613883141039 H 0.0 **** 0.06
35693 H 123.93799607287053 112.48681730681722 39.55700509760776 H 0.0 **** 0.06
35694 H 125.62962327628006 113.01691158248269 39.72490047239381 H 0.0 **** 0.06
35695 H 125.13742366020332 112.04308514352715 38.31875935842322 H 0.0 **** 0.06
35696 C 17.117884307540862 123.2195950634918 82.62277491199936 C 0.0 **** -0.24
35697 H 16.045741829769895 123.41931942763354 82.6319526854388 H 0.0 **** 0.06
35698 H 17.663335305026123 124.16429986461031 82.6305612070361 H 0.0 **** 0.06
35699 H 17.374774703428955 122.65834339803136 81.72501865421708 H 0.0 **** 0.06
35700 H 17.386373704832636 122.63794923632493 83.50453340127338 H 0.0 **** 0.06
35701 C 73.33409940459312 109.7399660432599 8.040228178028428 C 0.0 **** -0.24
35702 H 74.31245225425556 110.15669216563774 8.278860724259573 H 0.0 **** 0.06
35703 H 72.59425447168147 110.53986770044258 8.019679270416617 H 0.0 **** 0.06
35704 H 73.05639019943749 109.00733046247831 8.799076162616217 H 0.0 **** 0.06
35705 H 73.37405117020081 109.25502488846877 7.065426484902389 H 0.0 **** 0.06
35706 C 44.06992889700877 105.20169840835752 47.407217353100336 C 0.0 **** -0.24
35707 H 43.35640862619744 105.28088325539328 46.58671806568108 H 0.0 **** 0.06
35708 H 44.71496774288353 104.33857082691114 47.244711661314795 H 0.0 **** 0.06
35709 H 43.53016529636033 105.08095469407004 48.346851708364895 H 0.0 **** 0.06
35710 H 44.675957270925664 106.10654932867857 47.450343673513444 H 0.0 **** 0.06
35711 C 43.221940704172084 16.54337338179479 68.0083204066124 C 0.0 **** -0.24
35712 H 42.86911057023417 17.447663229257977 67.51259141718262 H 0.0 **** 0.06
35713 H 42.819317423903726 15.668353081444067 67.49587863991528 H 0.0 **** 0.06
35714 H 42.885819583829175 16.543235181607663 69.04533827469956 H 0.0 **** 0.06
35715 H 44.31051935183456 16.513043748523163 67.97870557918688 H 0.0 **** 0.06
35716 C 50.93663463734501 15.225773251737081 66.00331600563884 C 0.0 **** -0.24
35717 H 50.69602725288148 14.245050256911597 66.41313174322248 H 0.0 **** 0.06
35718 H 50.52764223235374 16.000416229586335 66.65139616837233 H 0.0 **** 0.06
35719 H 50.50456297352207 15.319316819982546 65.00648392137978 H 0.0 **** 0.06
35720 H 52.019426219990365 15.337687063072224 65.94165407189001 H 0.0 **** 0.06
35721 C 91.98771768312218 14.565981752661173 67.70260332308149 C 0.0 **** -0.24
35722 H 91.80380965475257 14.215534711768498 68.71832237403945 H 0.0 **** 0.06
35723 H 92.19532539416474 15.635924072218131 67.7195132077908 H 0.0 **** 0.06
35724 H 91.10804916495812 14.375022183536146 67.08872943050442 H 0.0 **** 0.06
35725 H 92.84353919193782 14.036272376185082 67.28599330597422 H 0.0 **** 0.06
35726 C 77.20592936032295 11.112268161261738 55.31805501349865 C 0.0 **** -0.24
35727 H 76.90401860124763 11.297685444072215 56.349150948524624 H 0.0 **** 0.06
35728 H 76.33916459719325 10.79141003893207 54.73867044179306 H 0.0 **** 0.06
35729 H 77.96643108698771 10.332263958745642 55.29698399763922 H 0.0 **** 0.06
35730 H 77.61203937431367 12.027609175949664 54.88873008221614 H 0.0 **** 0.06
35731 C 26.643285979026857 29.728131243167923 18.871156083267216 C 0.0 **** -0.24
35732 H 26.085404785924105 29.870151911504678 19.79601396363698 H 0.0 **** 0.06
35733 H 27.042252355395753 28.71470002208858 18.839087214082618 H 0.0 **** 0.06
35734 H 27.46433065490534 30.44389600188086 18.829216542471556 H 0.0 **** 0.06
35735 H 25.98046649150288 29.88580981657546 18.019680114318547 H 0.0 **** 0.06
35736 C 84.31626155198447 1.5035894184985636 8.903665709635327 C 0.0 **** -0.24
35737 H 83.52824353176544 0.8390191329595496 9.256768188471856 H 0.0 **** 0.06
35738 H 84.02689897747905 2.538739766304502 9.086281580429759 H 0.0 **** 0.06
35739 H 84.46828687554375 1.3512608754295456 7.834915125875025 H 0.0 **** 0.06
35740 H 85.24233762231287 1.2849963045446202 9.437301116657267 H 0.0 **** 0.06
35741 C 126.28240737456869 112.968419339922 71.77785908417906 C 0.0 **** -0.24
35742 H 125.30840621301778 112.81436330263368 71.31316030159604 H 0.0 **** 0.06
35743 H 126.39207250684765 112.29064497712854 72.62500015549165 H 0.0 **** 0.06
35744 H 126.36037273128525 113.99871413911144 72.12464213614524 H 0.0 **** 0.06
35745 H 127.0684930310284 112.77003850872946 71.04958864566544 H 0.0 **** 0.06
35746 C 89.24551816663619 55.44944394358828 11.721499451787736 C 0.0 **** -0.24
35747 H 88.26508612301757 55.60651732392853 11.272246281711887 H 0.0 **** 0.06
35748 H 89.35465376742313 54.399716349280936 11.996724725202114 H 0.0 **** 0.06
35749 H 89.33999086365868 56.070327772107305 12.612672655564609 H 0.0 **** 0.06
35750 H 90.02117143221956 55.7203604679691 11.00573295615959 H 0.0 **** 0.06
35751 C 44.6071552394225 118.20647014963772 97.68629964036636 C 0.0 **** -0.24
35752 H 44.60334782312498 117.82300091554328 98.70669629326468 H 0.0 **** 0.06
35753 H 45.29243629577934 119.05213350121402 97.61906196498865 H 0.0 **** 0.06
35754 H 43.60167238057977 118.52993593018374 97.41619853747449 H 0.0 **** 0.06
35755 H 44.93160114792926 117.4198551741196 97.00461918975392 H 0.0 **** 0.06
35756 C 94.68253649460942 76.12230259287708 49.74018917883093 C 0.0 **** -0.24
35757 H 95.57948476273606 76.74041200257233 49.7871686386771 H 0.0 **** 0.06
35758 H 94.59355519955983 75.6855749419039 48.74577391118058 H 0.0 **** 0.06
35759 H 93.80668461846051 76.73815454956548 49.94699920599301 H 0.0 **** 0.06
35760 H 94.75061456434895 75.32688981939748 50.48297072029355 H 0.0 **** 0.06
35761 C 25.99561319198436 99.70509958658326 92.26690687339186 C 0.0 **** -0.24
35762 H 25.97014173243192 98.80124150476212 92.874251216657 H 0.0 **** 0.06
35763 H 25.467888643149706 100.50640866102921 92.78540288258688 H 0.0 **** 0.06
35764 H 25.514522352368125 99.51291817526455 91.30841935565803 H 0.0 **** 0.06
35765 H 27.032158176006824 100.00190237249642 92.10116859347085 H 0.0 **** 0.06
35766 C 115.4483888054193 95.22355154716413 128.37855203240537 C 0.0 **** -0.24
35767 H 116.53440289899575 95.17218327424465 128.30900282966272 H 0.0 **** 0.06
35768 H 115.06334267262771 94.27330554684346 128.752144905788 H 0.0 **** 0.06
35769 H 115.0302371376291 95.42266098769265 127.39251095382158 H 0.0 **** 0.06
35770 H 115.16572913091149 96.02416169862707 129.06287024994018 H 0.0 **** 0.06
35771 C 125.46746322657054 58.88278826813584 10.285347735235575 C 0.0 **** -0.24
35772 H 126.1641281008797 58.224682832150734 9.765580685822044 H 0.0 **** 0.06
35773 H 125.16774231565829 59.692667590749636 9.62074838949303 H 0.0 **** 0.06
35774 H 125.95122181190385 59.297569324662476 11.169509349086866 H 0.0 **** 0.06
35775 H 124.58704760598826 58.31408893158974 10.586701248414101 H 0.0 **** 0.06
35776 C 87.61163645713019 64.95659576277018 19.46425952579898 C 0.0 **** -0.24
35777 H 87.66461515881319 63.91565354544849 19.143267158590078 H 0.0 **** 0.06
35778 H 87.80747859778596 65.01694182921568 20.534969895332637 H 0.0 **** 0.06
35779 H 86.61727164461172 65.35082469296776 19.25327451950338 H 0.0 **** 0.06
35780 H 88.35683107381807 65.54159640677085 18.92562915637339 H 0.0 **** 0.06
35781 C 108.8677748561559 43.78588237469512 99.24751351129851 C 0.0 **** -0.24
35782 H 109.70260681173673 43.1914848506612 99.61816109690866 H 0.0 **** 0.06
35783 H 108.98591585448622 44.82011454360526 99.57448465572904 H 0.0 **** 0.06
35784 H 107.93306390357196 43.3851550859805 99.64000243688943 H 0.0 **** 0.06
35785 H 108.85017933320023 43.74817056350315 98.15818587404229 H 0.0 **** 0.06
35786 C 125.89791363614799 51.441306557313894 73.20633391228924 C 0.0 **** -0.24
35787 H 126.83519603526125 51.11199997499541 73.65440793176407 H 0.0 **** 0.06
35788 H 125.69973643288708 50.856156845827954 72.30811005263354 H 0.0 **** 0.06
35789 H 125.97235227462923 52.497195835978445 72.94310534022736 H 0.0 **** 0.06
35790 H 125.08549986916125 51.301343323879976 73.91846210123916 H 0.0 **** 0.06
35791 C 32.189423445150595 116.55612108874004 123.28948023360294 C 0.0 **** -0.24
35792 H 32.59961271074454 116.61580580851182 124.29709867074968 H 0.0 **** 0.06
35793 H 32.35298314401524 115.55556445015242 122.88883684717302 H 0.0 **** 0.06
35794 H 32.684883959321354 117.28881272883189 122.65172372663216 H 0.0 **** 0.06
35795 H 31.11981218526242 116.76648962033929 123.32048619134832 H 0.0 **** 0.06
35796 C 29.763417535831024 81.32294376768476 77.97645846180828 C 0.0 **** -0.24
35797 H 30.113846797703985 80.74777377583501 77.12029130469483 H 0.0 **** 0.06
35798 H 30.47482143332475 82.1199219996256 78.19463890358699 H 0.0 **** 0.06
35799 H 29.674911647368987 80.66742522387233 78.84337060871769 H 0.0 **** 0.06
35800 H 28.789527245498476 81.75714220436089 77.74819995698456 H 0.0 **** 0.06
35801 C 58.45146735774097 111.35936686064048 47.19642330002711 C 0.0 **** -0.24
35802 H 58.629270805539136 111.45848927034302 46.1260625682872 H 0.0 **** 0.06
35803 H 57.624690710969276 110.6691215681293 47.36483439409303 H 0.0 **** 0.06
35804 H 58.20270203146552 112.33481626236568 47.6144110350143 H 0.0 **** 0.06
35805 H 59.35046234417166 110.97521512522783 47.679205828357226 H 0.0 **** 0.06
35806 C 80.09563054639185 117.6609816022518 44.631588765183864 C 0.0 **** -0.24
35807 H 80.62837746976246 118.50129003990293 44.18556302802574 H 0.0 **** 0.06
35808 H 80.073792028519 116.82942994504376 43.9263601091282 H 0.0 **** 0.06
35809 H 79.07594429952954 117.96269348080507 44.86851555565485 H 0.0 **** 0.06
35810 H 80.60572780169568 117.35133202222117 45.5440220099352 H 0.0 **** 0.06
35811 C 25.122561541551164 65.22847366883813 65.01727403430678 C 0.0 **** -0.24
35812 H 24.288667860512334 65.1098633395045 65.71064010334888 H 0.0 **** 0.06
35813 H 24.783305867236606 65.76543927657593 64.13122605825679 H 0.0 **** 0.06
35814 H 25.495744810353983 64.24615453133859 64.72735190839411 H 0.0 **** 0.06
35815 H 25.91957357737894 65.79174017874392 65.50121519245567 H 0.0 **** 0.06
35816 C 1.4142998185472564 54.96561670283302 22.420708374293447 C 0.0 **** -0.24
35817 H 1.2176780439956367 54.87058825845327 21.352639573950178 H 0.0 **** 0.06
35818 H 1.131709392030075 55.96493576659083 22.75301632678842 H 0.0 **** 0.06
35819 H 2.4761395274646176 54.80715552131983 22.60929511937907 H 0.0 **** 0.06
35820 H 0.8326753947723837 54.222379585423255 22.964837046358227 H 0.0 **** 0.06
35821 C 67.44577666394446 66.80512021842438 126.18604625536355 C 0.0 **** -0.24
35822 H 67.51711838041598 65.98769986598623 126.90361353461608 H 0.0 **** 0.06
35823 H 66.9825939075738 67.66940411251205 126.66390989034483 H 0.0 **** 0.06
35824 H 66.83859375800327 66.49088554731664 125.33713285698022 H 0.0 **** 0.06
35825 H 68.44390190299004 67.07273300977774 125.83989477444877 H 0.0 **** 0.06
35826 C 14.857631345263133 104.55050783906347 124.15262735001498 C 0.0 **** -0.24
35827 H 14.296911428318097 103.985153785818 124.89742831382084 H 0.0 **** 0.06
35828 H 14.885051463160611 103.99055242238552 123.21745646737098 H 0.0 **** 0.06
35829 H 15.873738014536826 104.71352669276803 124.50933936035624 H 0.0 **** 0.06
35830 H 14.371974276520419 105.51191020118489 123.98658169841848 H 0.0 **** 0.06
35831 C 26.733828393413965 124.80986764197107 61.39076745362405 C 0.0 **** -0.24
35832 H 27.55244988060513 125.35519674334027 61.858092157990484 H 0.0 **** 0.06
35833 H 25.78580917068696 125.14309564877723 61.8157606853851 H 0.0 **** 0.06
35834 H 26.858481139110907 123.74250352874063 61.57126114366821 H 0.0 **** 0.06
35835 H 26.73690815446014 124.99924982347687 60.31657870550231 H 0.0 **** 0.06
35836 C 22.82462784809738 51.67955926914743 77.9062905757122 C 0.0 **** -0.24
35837 H 23.307957790979337 52.40945815340024 78.55633695905499 H 0.0 **** 0.06
35838 H 21.770448082393678 51.59876726808113 78.17186007248097 H 0.0 **** 0.06
35839 H 23.307038301512335 50.710291338351 78.02784813169666 H 0.0 **** 0.06
35840 H 22.914677067537156 52.00225081947593 76.86904336695147 H 0.0 **** 0.06
35841 C 58.10649181083613 34.609227249216644 26.176921989467786 C 0.0 **** -0.24
35842 H 57.836666854798466 35.47230615050091 26.785156934352443 H 0.0 **** 0.06
35843 H 59.09911935317308 34.759962143780704 25.7516067307007 H 0.0 **** 0.06
35844 H 57.38021709891672 34.4902064774067 25.372726376817837 H 0.0 **** 0.06
35845 H 58.108649200856405 33.71392300318547 26.798096751408437 H 0.0 **** 0.06
35846 C 10.039472053188163 54.16346198241163 60.29119105581128 C 0.0 **** -0.24
35847 H 9.881976055751196 53.46302905323026 61.11193050517727 H 0.0 **** 0.06
35848 H 9.235783597359628 54.89911482358801 60.28252035669891 H 0.0 **** 0.06
35849 H 10.046125859180236 53.62004282582099 59.34602765765328 H 0.0 **** 0.06
35850 H 10.995231779733615 54.66995604325848 60.4255434986992 H 0.0 **** 0.06
35851 C 83.62243824021755 48.471300520069974 24.22697121849643 C 0.0 **** -0.24
35852 H 83.80590638267387 49.418879867115805 24.732960608576406 H 0.0 **** 0.06
35853 H 83.51573752735402 48.64637386442277 23.15578504026155 H 0.0 **** 0.06
35854 H 82.70823530080122 48.02217800345241 24.61592038874869 H 0.0 **** 0.06
35855 H 84.46219924420782 47.797774349782 24.40244916339097 H 0.0 **** 0.06
35856 C 83.41868004288341 90.26553281783566 102.83017965239804 C 0.0 **** -0.24
35857 H 82.35912693928367 90.51220686195757 102.9012333734116 H 0.0 **** 0.06
35858 H 83.96627415833177 91.12448793632831 102.44036130524108 H 0.0 **** 0.06
35859 H 83.55044009925456 89.41650510548976 102.16013290121066 H 0.0 **** 0.06
35860 H 83.79925835816101 90.01101565274416 103.81970664359719 H 0.0 **** 0.06
35861 C 7.890203068986523 33.119875018783404 130.79021693865295 C 0.0 **** -0.24
35862 H 7.846211716911171 33.36598654585572 131.85126564610798 H 0.0 **** 0.06
35863 H 7.034628652174547 33.56172094158285 130.27920609504997 H 0.0 **** 0.06
35864 H 7.867255985860652 32.03678767452749 130.6671204627235 H 0.0 **** 0.06
35865 H 8.81253848696582 33.51421845493701 130.363867206512 H 0.0 **** 0.06
35866 C 93.33558785686813 75.71554230059449 11.943943471275048 C 0.0 **** -0.24
35867 H 92.52187483485383 75.69654414828307 11.218226779636126 H 0.0 **** 0.06
35868 H 94.27367718665832 75.47499904104178 11.44383167110729 H 0.0 **** 0.06
35869 H 93.14052823657215 74.98059783554906 12.725608302522716 H 0.0 **** 0.06
35870 H 93.40338726470597 76.70884527199382 12.387573851578367 H 0.0 **** 0.06
35871 C 7.433589475167096 23.601185648372734 31.761350956890823 C 0.0 **** -0.24
35872 H 8.388054048830767 24.128194510305633 31.76259294081253 H 0.0 **** 0.06
35873 H 6.873933281363605 23.865579177678654 30.86288971572371 H 0.0 **** 0.06
35874 H 6.859838649218716 23.88644498707916 32.64419050825717 H 0.0 **** 0.06
35875 H 7.611631352799009 22.526548936995965 31.77602824636717 H 0.0 **** 0.06
35876 C 27.388167652979632 25.655478885144078 114.62954138847951 C 0.0 **** -0.24
35877 H 27.269623061499942 24.60114124622021 114.87902642333208 H 0.0 **** 0.06
35878 H 27.420509823349846 25.771055784034132 113.54576858825536 H 0.0 **** 0.06
35879 H 28.315028476293264 26.028904775768808 115.0635200956759 H 0.0 **** 0.06
35880 H 26.545576349697853 26.21963793005125 115.03078944233724 H 0.0 **** 0.06
35881 C 50.51446067046072 120.88601700296263 4.30202252650767 C 0.0 **** -0.24
35882 H 49.43843427399558 120.81206005482193 4.456712490150068 H 0.0 **** 0.06
35883 H 50.80487837035314 120.25318292589839 3.4630379649694305 H 0.0 **** 0.06
35884 H 51.03444893443772 120.55735174803357 5.202235203450698 H 0.0 **** 0.06
35885 H 50.77989316395822 121.92007226779344 4.0860603236043005 H 0.0 **** 0.06
35886 C 51.258566561985276 28.27277912412933 35.7162241151985 C 0.0 **** -0.24
35887 H 50.51930863937096 28.982718944515256 35.34480162587215 H 0.0 **** 0.06
35888 H 52.116718856486926 28.256991863695283 35.04361878830156 H 0.0 **** 0.06
35889 H 50.8144515834652 27.277629351113305 35.7632600404157 H 0.0 **** 0.06
35890 H 51.582831390876095 28.573617480562106 36.71178024113826 H 0.0 **** 0.06
35891 C 67.9202922263102 116.52041621824031 24.726972481206815 C 0.0 **** -0.24
35892 H 68.89966606074086 116.38866838030452 25.185722747277737 H 0.0 **** 0.06
35893 H 67.88246162608236 115.96964695319826 23.787183395691898 H 0.0 **** 0.06
35894 H 67.74931570203842 117.5797105579253 24.533977593507416 H 0.0 **** 0.06
35895 H 67.1501237620973 116.14439802131017 25.399881301305527 H 0.0 **** 0.06
35896 C 128.30121238640996 106.27029139920484 124.82952696817831 C 0.0 **** -0.24
35897 H 127.55243453716085 105.48076559332003 124.90331910982925 H 0.0 **** 0.06
35898 H 127.92194033486808 107.17508903794621 125.305776358297 H 0.0 **** 0.06
35899 H 128.51384757156367 106.47278713796982 123.77965828949026 H 0.0 **** 0.06
35900 H 129.21465134558488 105.95136789664264 125.33129337103769 H 0.0 **** 0.06
35901 C 75.9842497000918 74.86123689472748 2.6848907718877513 C 0.0 **** -0.24
35902 H 76.08383318236744 75.76303029565736 2.080898012392254 H 0.0 **** 0.06
35903 H 76.92005540043235 74.30287621654031 2.660446680999712 H 0.0 **** 0.06
35904 H 75.18025673738626 74.24316599915568 2.2848155607806575 H 0.0 **** 0.06
35905 H 75.75308530103163 75.13885828511158 3.7136200329550206 H 0.0 **** 0.06
35906 C 76.00085330795218 46.785785964745024 114.61130776334892 C 0.0 **** -0.24
35907 H 77.01007758912002 47.174751403217094 114.47541913868423 H 0.0 **** 0.06
35908 H 75.49278283668275 46.74892625972323 113.64717225362176 H 0.0 **** 0.06
35909 H 75.44784245768287 47.43726389863766 115.28834468991647 H 0.0 **** 0.06
35910 H 76.0521486878335 45.78262744595861 115.03358515278217 H 0.0 **** 0.06
35911 C 2.0000802999438747 59.67042594672566 115.39572542455083 C 0.0 **** -0.24
35912 H 2.0092740521477026 59.885707247263866 116.46475160302903 H 0.0 **** 0.06
35913 H 2.474631242811938 60.489465678338604 114.85631581402292 H 0.0 **** 0.06
35914 H 0.9696891211575007 59.55962199912611 115.05696295704637 H 0.0 **** 0.06
35915 H 2.545285238405313 58.74607501934244 115.20755967172154 H 0.0 **** 0.06
35916 C 31.854627016111323 88.81949937739523 86.14872855130736 C 0.0 **** -0.24
35917 H 31.677847159487015 88.00794962049696 85.44406178619138 H 0.0 **** 0.06
35918 H 32.884060916891514 88.77431963391274 86.50471468401221 H 0.0 **** 0.06
35919 H 31.172839190272413 88.7224607508104 86.99330673299514 H 0.0 **** 0.06
35920 H 31.683064772705194 89.77539153276186 85.65289682127096 H 0.0 **** 0.06
35921 C 4.910077046414585 72.88599710199627 14.35013032749394 C 0.0 **** -0.24
35922 H 4.655384916632613 71.87837300287914 14.678823299377974 H 0.0 **** 0.06
35923 H 5.983680138853117 73.04152175441654 14.453401412614095 H 0.0 **** 0.06
35924 H 4.376475372553045 73.61315645046362 14.963061045660496 H 0.0 **** 0.06
35925 H 4.622985965662224 73.01159155200389 13.306417635617965 H 0.0 **** 0.06
35926 C 45.0067917656292 106.47219383248722 107.4891130947933 C 0.0 **** -0.24
35927 H 44.99509113605848 105.80349046922444 106.62908035540633 H 0.0 **** 0.06
35928 H 45.90324917794868 107.09217539318146 107.45459493141426 H 0.0 **** 0.06
35929 H 45.007100101502715 105.88357265913174 108.40692872511714 H 0.0 **** 0.06
35930 H 44.12329370919889 107.10883930462492 107.46608914182487 H 0.0 **** 0.06
35931 C 24.000251566770203 93.65253896478796 65.37799083346081 C 0.0 **** -0.24
35932 H 24.403511702944016 94.65274862204825 65.53634920701558 H 0.0 **** 0.06
35933 H 24.11922587968914 93.37371441923736 64.33118930866269 H 0.0 **** 0.06
35934 H 22.94129594772113 93.64272604790457 65.63900282086593 H 0.0 **** 0.06
35935 H 24.534869477568236 92.9410624427866 66.0075592036924 H 0.0 **** 0.06
35936 C 15.625210304804995 95.1967959691795 6.891911476078256 C 0.0 **** -0.24
35937 H 16.464403391199824 95.695879495951 7.376686764015712 H 0.0 **** 0.06
35938 H 14.92006794586814 95.94318620963321 6.5266522368067115 H 0.0 **** 0.06
35939 H 15.127026577476869 94.54540144940515 7.609692502023918 H 0.0 **** 0.06
35940 H 15.99148375382066 94.60208503848233 6.054754877362768 H 0.0 **** 0.06
35941 C 110.23693362879206 95.34276608015259 11.773466988552457 C 0.0 **** -0.24
35942 H 109.37808450781273 95.95140777111766 11.494164579486778 H 0.0 **** 0.06
35943 H 109.92474682745132 94.57996608528705 12.487003994268406 H 0.0 **** 0.06
35944 H 110.99828650539799 95.97615436110411 12.2283301901617 H 0.0 **** 0.06
35945 H 110.64600830558527 94.86284877367555 10.883972300553637 H 0.0 **** 0.06
35946 C 72.24652683528197 125.67220200017962 78.45450905160725 C 0.0 **** -0.24
35947 H 71.35836685669918 125.40180989310821 79.02572480552313 H 0.0 **** 0.06
35948 H 72.70806929675089 124.76959243246395 78.05403683754449 H 0.0 **** 0.06
35949 H 72.9539039646632 126.18448204323121 79.10663651070341 H 0.0 **** 0.06
35950 H 71.96347192959794 126.33107857017345 77.63485184143983 H 0.0 **** 0.06
35951 C 13.136104264639783 44.30589712362011 74.39463836460874 C 0.0 **** -0.24
35952 H 13.072186262095727 45.07812795613606 75.16101260771649 H 0.0 **** 0.06
35953 H 12.3649196145183 44.47698523009902 73.64211149633508 H 0.0 **** 0.06
35954 H 12.98771523087143 43.3274225974682 74.85126814575312 H 0.0 **** 0.06
35955 H 14.117739259629332 44.342535646924745 73.92262691893944 H 0.0 **** 0.06
35956 C 113.22200878041943 121.16989355183142 78.81757888522577 C 0.0 **** -0.24
35957 H 113.3789064092683 121.51144447631742 79.8401264396982 H 0.0 **** 0.06
35958 H 114.0709837001809 121.4672386549139 78.20099554568702 H 0.0 **** 0.06
35959 H 112.31029545680428 121.61732505262512 78.42039328987201 H 0.0 **** 0.06
35960 H 113.127414604118 120.08435818766031 78.80771242137689 H 0.0 **** 0.06
35961 C 118.43078211781798 15.472602115154093 96.99603749854231 C 0.0 **** -0.24
35962 H 117.46495635764677 15.14831051512132 96.60809027232537 H 0.0 **** 0.06
35963 H 119.07538606987325 15.76446427379799 96.16654986687757 H 0.0 **** 0.06
35964 H 118.89310449743351 14.655242911516801 97.54739336457402 H 0.0 **** 0.06
35965 H 118.2871310734289 16.32490604424143 97.66103518681763 H 0.0 **** 0.06
35966 C 73.505879993798 69.67165052470172 83.68501260982492 C 0.0 **** -0.24
35967 H 73.63894155164328 69.24573624136809 84.67984533635723 H 0.0 **** 0.06
35968 H 74.48211480947475 69.87824385199868 83.2463324821768 H 0.0 **** 0.06
35969 H 72.93714973326823 70.59775046534968 83.76014705769603 H 0.0 **** 0.06
35970 H 72.96723920999827 68.96309701103955 83.05549889711557 H 0.0 **** 0.06
35971 C 73.08236838139746 25.438260903791715 120.63228768788339 C 0.0 **** -0.24
35972 H 73.06341664092699 24.399646742586555 120.30272297142703 H 0.0 **** 0.06
35973 H 73.62837185867726 25.511774667800978 121.57291641929878 H 0.0 **** 0.06
35974 H 72.06165868838117 25.793016031981963 120.7755636392845 H 0.0 **** 0.06
35975 H 73.57576493070287 26.049231974382536 119.87670669343913 H 0.0 **** 0.06
35976 C 99.89530591972351 105.82709815240412 2.693461758413214 C 0.0 **** -0.24
35977 H 100.56807212348161 106.21616462178648 3.457323887259566 H 0.0 **** 0.06
35978 H 100.27632367940203 104.87455852024698 2.323849471644749 H 0.0 **** 0.06
35979 H 99.83196750654429 106.53814429805998 1.8689721190765631 H 0.0 **** 0.06
35980 H 98.90431657914849 105.68036433469067 3.123713797462294 H 0.0 **** 0.06
35981 C 122.48495545408288 2.619196498375601 6.4265630686497275 C 0.0 **** -0.24
35982 H 122.37747924376204 1.806561677913976 7.144096976231822 H 0.0 **** 0.06
35983 H 122.15804914984447 2.2811501834789283 5.442868773774933 H 0.0 **** 0.06
35984 H 123.53004913991626 2.9241613946667826 6.377369127079987 H 0.0 **** 0.06
35985 H 121.87424428280866 3.464912737442944 6.741917397512111 H 0.0 **** 0.06
35986 C 97.48603210480132 45.10416090306734 14.010891752323996 C 0.0 **** -0.24
35987 H 97.67348080502495 46.048291036571015 14.52060603124508 H 0.0 **** 0.06
35988 H 97.23004611410079 44.33976895814703 14.745159173249867 H 0.0 **** 0.06
35989 H 98.38024129611111 44.800602450507995 13.466904956489977 H 0.0 **** 0.06
35990 H 96.65933019653778 45.227164567249304 13.31141873083397 H 0.0 **** 0.06
35991 C 59.66457968135791 78.86987002287674 30.898716207930633 C 0.0 **** -0.24
35992 H 60.084968284269195 79.779220308199 30.471409706318482 H 0.0 **** 0.06
35993 H 60.376726766834565 78.052259478275 30.786881516659847 H 0.0 **** 0.06
35994 H 58.73903311280998 78.6185995348643 30.38099896436904 H 0.0 **** 0.06
35995 H 59.45708243065528 79.02919938590128 31.957218242638703 H 0.0 **** 0.06
35996 C 91.34584305043805 37.150148698949124 70.74944893545864 C 0.0 **** -0.24
35997 H 92.26790703346364 37.43139176460491 70.24057190960801 H 0.0 **** 0.06
35998 H 90.98780110543149 37.99188829351422 71.34323084576846 H 0.0 **** 0.06
35999 H 91.5369471292561 36.29887988012993 71.4018361098411 H 0.0 **** 0.06
36000 H 90.592483588335 36.87929086747519 70.00988824672243 H 0.0 **** 0.06
36001 C 125.4649231847365 27.34102264317383 41.92518838872003 C 0.0 **** -0.24
36002 H 125.56145603695623 26.650243015115535 42.76409512026774 H 0.0 **** 0.06
36003 H 124.94242736111806 26.846643432984564 41.10637719731534 H 0.0 **** 0.06
36004 H 126.45562406060785 27.647950906015154 41.59264187508748 H 0.0 **** 0.06
36005 H 124.89937658897247 28.217458941324765 42.241777932308025 H 0.0 **** 0.06
36006 C 19.03239916540045 34.753978694574386 16.488055414509745 C 0.0 **** -0.24
36007 H 19.486075570496816 34.734892428748175 17.478651632975726 H 0.0 **** 0.06
36008 H 18.95153995478968 35.78558754510101 16.145737684997982 H 0.0 **** 0.06
36009 H 18.03844695329932 34.30800751764156 16.535775801558827 H 0.0 **** 0.06
36010 H 19.652033886884155 34.18731082873563 15.793710572599252 H 0.0 **** 0.06
36011 C 40.10794501068008 86.23852156029048 32.57284659436523 C 0.0 **** -0.24
36012 H 39.30186535192823 85.70069901655111 32.0724517121599 H 0.0 **** 0.06
36013 H 40.9760761416139 86.28278542081787 31.915863739634197 H 0.0 **** 0.06
36014 H 40.3734072344013 85.7197294436377 33.49327472542695 H 0.0 **** 0.06
36015 H 39.77768642804179 87.25077169505653 32.80725528571224 H 0.0 **** 0.06
36016 C 44.89871928638348 16.507096631488743 99.41289604147526 C 0.0 **** -0.24
36017 H 45.02402765546779 15.594346481733613 99.99465234700358 H 0.0 **** 0.06
36018 H 44.52232943859735 16.255429282763437 98.4209485902436 H 0.0 **** 0.06
36019 H 45.85967110705536 17.013013307546608 99.31974894107964 H 0.0 **** 0.06
36020 H 44.18875823348256 17.163642217348638 99.91582313637782 H 0.0 **** 0.06
36021 C 116.3626304120638 112.81166494495741 125.40488816520053 C 0.0 **** -0.24
36022 H 116.94232385080502 113.72335143982846 125.54706300195005 H 0.0 **** 0.06
36023 H 117.0190290748654 111.94550909258362 125.49319075952064 H 0.0 **** 0.06
36024 H 115.90498339040673 112.82301959110836 124.41564817977923 H 0.0 **** 0.06
36025 H 115.58258447180415 112.75577720421236 126.16431582709339 H 0.0 **** 0.06
36026 C 17.382655381538385 12.439459279744455 71.27664659193528 C 0.0 **** -0.24
36027 H 17.55235912796607 13.24892876730641 71.98623677391984 H 0.0 **** 0.06
36028 H 18.324641834033542 12.173923936703972 70.79654973933293 H 0.0 **** 0.06
36029 H 16.667315423911703 12.762753793120254 70.52067314580282 H 0.0 **** 0.06
36030 H 16.98659957399792 11.571438933947206 71.8042610150512 H 0.0 **** 0.06
36031 C 104.85896343652205 32.839323495830115 93.1512617096479 C 0.0 **** -0.24
36032 H 104.40199607784605 33.815009011246445 93.31874340581284 H 0.0 **** 0.06
36033 H 104.81765934430126 32.597486695857924 92.08920502247805 H 0.0 **** 0.06
36034 H 104.31607811869928 32.08237276577739 93.71771084188272 H 0.0 **** 0.06
36035 H 105.8975329887473 32.86394415688267 93.47936460470629 H 0.0 **** 0.06
36036 C 62.91748471418842 59.88708424830172 38.66189394573522 C 0.0 **** -0.24
36037 H 63.49006783178061 60.759476763295766 38.34744629378494 H 0.0 **** 0.06
36038 H 61.868340458911376 60.02589679921125 38.39928411415661 H 0.0 **** 0.06
36039 H 63.00947436384442 59.76207302076973 39.741227823686664 H 0.0 **** 0.06
36040 H 63.303659945369446 58.99944777722477 38.15902840063236 H 0.0 **** 0.06
36041 C 9.641356742599328 120.24015366252908 56.688025764739095 C 0.0 **** -0.24
36042 H 9.309009025423535 120.86644638351271 57.51630767829543 H 0.0 **** 0.06
36043 H 10.664278263648228 119.91184028862511 56.869875458127794 H 0.0 **** 0.06
36044 H 9.602368813219329 120.81306018218638 55.761597394245214 H 0.0 **** 0.06
36045 H 8.98887057070229 119.37122855434245 56.606151554828145 H 0.0 **** 0.06
36046 C 69.30807799018244 12.420251028229078 100.57206729591795 C 0.0 **** -0.24
36047 H 69.17313806348933 12.996584937433102 101.4871098560637 H 0.0 **** 0.06
36048 H 70.28731086409576 12.638348718119389 100.1456732813702 H 0.0 **** 0.06
36049 H 68.53112259973919 12.689151792588842 99.85601966985344 H 0.0 **** 0.06
36050 H 69.23926421946116 11.356741327443235 100.80035492109822 H 0.0 **** 0.06
36051 C 102.1870798651036 0.9802540929785479 82.12206890174622 C 0.0 **** -0.24
36052 H 101.12624621537991 0.7316922062995097 82.13823637371371 H 0.0 **** 0.06
36053 H 102.5114632779638 1.121922530152009 81.09055690828075 H 0.0 **** 0.06
36054 H 102.75743506135423 0.16868453256268978 82.57375160100935 H 0.0 **** 0.06
36055 H 102.35410651932523 1.8987717759261713 82.68466807688861 H 0.0 **** 0.06
36056 C 79.64436960425525 17.036844297272353 21.065514913294436 C 0.0 **** -0.24
36057 H 79.55832948637112 18.120772578387516 21.140187777759337 H 0.0 **** 0.06
36058 H 80.61862028902567 16.72306157330462 21.442164023953467 H 0.0 **** 0.06
36059 H 79.54396357771327 16.73558831345099 20.022402274379886 H 0.0 **** 0.06
36060 H 78.85812488543394 16.568639715786844 21.65625773797896 H 0.0 **** 0.06
36061 C 67.5604163933634 102.5159465382042 87.50041800081857 C 0.0 **** -0.24
36062 H 67.61967356615942 101.98040333342992 88.44674426960849 H 0.0 **** 0.06
36063 H 68.56373481104629 102.65423130935702 87.09748879416344 H 0.0 **** 0.06
36064 H 67.0962530179107 103.48895032478289 87.6622928839496 H 0.0 **** 0.06
36065 H 66.96021896692152 101.94132342460793 86.79440182523547 H 0.0 **** 0.06
36066 C 22.061547687075347 64.27428342891213 2.548861412972343 C 0.0 **** -0.24
36067 H 21.807158295189538 64.1040157662651 1.5028177143762207 H 0.0 **** 0.06
36068 H 21.638848999511367 65.22496283872758 2.875105177023812 H 0.0 **** 0.06
36069 H 23.14543238354412 64.3008964990579 2.6598396256562182 H 0.0 **** 0.06
36070 H 21.653678408497854 63.46633911283409 3.157746625791816 H 0.0 **** 0.06
36071 C 20.108667145380707 80.65920840012927 8.47103551057036 C 0.0 **** -0.24
36072 H 19.331649626556555 79.89583349649132 8.436178950688529 H 0.0 **** 0.06
36073 H 21.080463898734337 80.19690183733833 8.301061628581508 H 0.0 **** 0.06
36074 H 20.10054298829826 81.14070638546292 9.449882928056525 H 0.0 **** 0.06
36075 H 19.920141161677293 81.404177784862 7.697957867163893 H 0.0 **** 0.06
36076 C 14.421974963943171 105.8996270872411 59.212619590143106 C 0.0 **** -0.24
36077 H 14.345933117281106 105.95344802341506 58.12685332427202 H 0.0 **** 0.06
36078 H 15.0294834859219 106.72898597720442 59.57555860208106 H 0.0 **** 0.06
36079 H 14.8864060941645 104.95572409289449 59.49731821995408 H 0.0 **** 0.06
36080 H 13.42470190962024 105.96079479876951 59.64904194589178 H 0.0 **** 0.06
36081 C 109.59345662254344 46.71009727165952 93.27404086707108 C 0.0 **** -0.24
36082 H 108.85418117077148 47.17841152075232 92.62462265704883 H 0.0 **** 0.06
36083 H 110.35674049635645 46.22521738582711 92.66436737475236 H 0.0 **** 0.06
36084 H 109.10488394581284 45.965705936296814 93.90345789778691 H 0.0 **** 0.06
36085 H 110.05821787802074 47.46953994106866 93.90242391110314 H 0.0 **** 0.06
36086 C 113.39804406285315 58.64492177250996 110.34234745617607 C 0.0 **** -0.24
36087 H 113.24911133744816 58.833049254156776 109.27877113037249 H 0.0 **** 0.06
36088 H 113.94246515455158 57.70906838822644 110.4715203341081 H 0.0 **** 0.06
36089 H 112.42907863624146 58.57325529916909 110.83764278013743 H 0.0 **** 0.06
36090 H 113.96977216424408 59.46213932299598 110.77940327695507 H 0.0 **** 0.06
36091 C 79.21776233626903 77.64440900989916 5.3029486916381074 C 0.0 **** -0.24
36092 H 79.3965605002733 78.46067735076724 4.60388315985881 H 0.0 **** 0.06
36093 H 78.15056999930775 77.42446780723549 5.339484718550864 H 0.0 **** 0.06
36094 H 79.56327277939405 77.93394601367794 6.295504655861123 H 0.0 **** 0.06
36095 H 79.76104631325339 76.75806471776582 4.973702817958667 H 0.0 **** 0.06
36096 C 113.44041918968462 99.80321745259751 5.1461107106483155 C 0.0 **** -0.24
36097 H 114.51341698022019 99.78746965542659 4.9539356850162335 H 0.0 **** 0.06
36098 H 113.05080265552273 100.80209676917517 4.949760163047074 H 0.0 **** 0.06
36099 H 113.25438240443027 99.53783835923335 6.186777668213836 H 0.0 **** 0.06
36100 H 112.94500866585268 99.08398687898163 4.493694984674335 H 0.0 **** 0.06
36101 C 19.222590875565487 91.11754554499282 67.10076059557849 C 0.0 **** -0.24
36102 H 20.272982079639917 90.87909112276934 66.93392753018395 H 0.0 **** 0.06
36103 H 18.704588434395134 91.16119685344182 66.14282714759159 H 0.0 **** 0.06
36104 H 19.144590822651622 92.08343798723219 67.60071689466162 H 0.0 **** 0.06
36105 H 18.770358923469274 90.34751411405003 67.7250916607212 H 0.0 **** 0.06
36106 C 16.04375966151855 40.21707420934905 108.03578654843419 C 0.0 **** -0.24
36107 H 15.75818917410436 40.21362316072265 109.08770197081797 H 0.0 **** 0.06
36108 H 16.86709317654794 39.51931916627041 107.88199347718724 H 0.0 **** 0.06
36109 H 16.358445190176326 41.2198657910659 107.74729128491184 H 0.0 **** 0.06
36110 H 15.1922863361292 39.91357030551336 107.42676682633504 H 0.0 **** 0.06
36111 C 76.69504733241538 42.94506833550088 19.52182489641777 C 0.0 **** -0.24
36112 H 76.31494608461112 43.758574476532374 18.903796356120523 H 0.0 **** 0.06
36113 H 77.4478337668591 42.3871383860502 18.964827381324284 H 0.0 **** 0.06
36114 H 75.87398912349067 42.28051987173714 19.791128139539552 H 0.0 **** 0.06
36115 H 77.14231102663517 43.355975834689616 20.427704448677673 H 0.0 **** 0.06
36116 C 118.0551402600849 113.22202358927552 111.89047426299572 C 0.0 **** -0.24
36117 H 117.72308130411255 112.19522470255936 111.73791164708655 H 0.0 **** 0.06
36118 H 119.05168030354396 113.34921888314278 111.46596767232077 H 0.0 **** 0.06
36119 H 118.0840676859944 113.43970496346759 112.95830829259765 H 0.0 **** 0.06
36120 H 117.36095544216694 113.90434181033845 111.39921894091293 H 0.0 **** 0.06
36121 C 10.397378948117918 41.05990907309924 97.10602238777822 C 0.0 **** -0.24
36122 H 10.460894859436635 42.10510439894783 96.8037445110331 H 0.0 **** 0.06
36123 H 9.395970511379929 40.85087495977297 97.4827628438601 H 0.0 **** 0.06
36124 H 11.1293363969817 40.86318518124455 97.89028162593645 H 0.0 **** 0.06
36125 H 10.604607273890963 40.42147476470367 96.24786770403367 H 0.0 **** 0.06
36126 C 38.498618491968976 44.76118934353896 87.00447480855604 C 0.0 **** -0.24
36127 H 38.181141400410155 45.7886113010959 86.82929538722881 H 0.0 **** 0.06
36128 H 38.30430590729316 44.16340026503613 86.11427523733074 H 0.0 **** 0.06
36129 H 37.9442805674189 44.348873376694016 87.84795421844599 H 0.0 **** 0.06
36130 H 39.56576091362338 44.7443615719304 87.2283060122534 H 0.0 **** 0.06
36131 C 58.04156965533275 85.41838884550326 114.69357688633845 C 0.0 **** -0.24
36132 H 58.76519941543094 86.23089519951964 114.64402124400205 H 0.0 **** 0.06
36133 H 58.47850452546038 84.5735306667094 115.22701020996955 H 0.0 **** 0.06
36134 H 57.771226286685135 85.11034348339459 113.6835773882655 H 0.0 **** 0.06
36135 H 57.149217644164764 85.75813526808639 115.21989025403248 H 0.0 **** 0.06
36136 C 97.50723984158665 7.034173717605185 93.63342870665296 C 0.0 **** -0.24
36137 H 97.37521806104607 7.259055281169168 94.69201315272105 H 0.0 **** 0.06
36138 H 97.48847640010126 7.961775860009446 93.06032947267025 H 0.0 **** 0.06
36139 H 96.69994186122595 6.382805486701539 93.29810514960992 H 0.0 **** 0.06
36140 H 98.46392388372885 6.533771826446571 93.48485872631534 H 0.0 **** 0.06
36141 C 6.312363812496102 23.479121191876743 76.85389183197715 C 0.0 **** -0.24
36142 H 7.329203088163837 23.212211564352856 77.14145155821114 H 0.0 **** 0.06
36143 H 6.137850479984763 24.532735584832608 77.07411292702075 H 0.0 **** 0.06
36144 H 5.605034905023189 22.86896424078998 77.41482207145768 H 0.0 **** 0.06
36145 H 6.178071283754321 23.30341732136833 75.78712800220565 H 0.0 **** 0.06
36146 C 94.37852234964149 50.65566261564466 121.2863444328971 C 0.0 **** -0.24
36147 H 94.86019852771892 50.38100441588719 120.34780172522625 H 0.0 **** 0.06
36148 H 93.8546355976597 51.60371072728425 121.16058683767625 H 0.0 **** 0.06
36149 H 95.13356513755019 50.757737679884215 122.06581511116195 H 0.0 **** 0.06
36150 H 93.6661427280055 49.88126765498804 121.56954603699305 H 0.0 **** 0.06
36151 C 7.641334061770447 32.35691821327782 30.258659086439096 C 0.0 **** -0.24
36152 H 7.284597319586851 32.74137358930771 31.21415760921378 H 0.0 **** 0.06
36153 H 8.208067934180487 31.440007510174098 30.425880643801918 H 0.0 **** 0.06
36154 H 8.2838259641644 33.09976978352323 29.78485931228216 H 0.0 **** 0.06
36155 H 6.790818238676849 32.145571629061095 29.61083588198383 H 0.0 **** 0.06
36156 C 35.07696605129394 80.48752927951196 78.66558556665105 C 0.0 **** -0.24
36157 H 34.34406228667214 80.17077993600951 77.92389400955805 H 0.0 **** 0.06
36158 H 35.912112905624724 79.78706292028879 78.67230007642254 H 0.0 **** 0.06
36159 H 34.610350866649185 80.50657970471532 79.65124316691006 H 0.0 **** 0.06
36160 H 35.43969200877592 81.48440916207211 78.41570393237107 H 0.0 **** 0.06
36161 C 91.03627839944544 65.1630990669862 20.75464386259364 C 0.0 **** -0.24
36162 H 91.18315017544114 64.10535950851954 20.535590918295668 H 0.0 **** 0.06
36163 H 91.53834452079013 65.41393327105357 21.689441874214992 H 0.0 **** 0.06
36164 H 89.96997220267355 65.37022587169776 20.847633521186367 H 0.0 **** 0.06
36165 H 91.45272837450027 65.76324354165979 19.94606024985643 H 0.0 **** 0.06
36166 C 77.67971892864284 98.599213461418 107.96121361607774 C 0.0 **** -0.24
36167 H 78.45931999106543 98.6539402267594 107.20108029833648 H 0.0 **** 0.06
36168 H 77.83043087995966 99.39251981941561 108.69332521689398 H 0.0 **** 0.06
36169 H 77.72664542060951 97.6304725869092 108.45840923024099 H 0.0 **** 0.06
36170 H 76.70442856667259 98.71831545844742 107.4896684188314 H 0.0 **** 0.06
36171 C 41.31522299219645 54.20730549399141 68.64047365551744 C 0.0 **** -0.24
36172 H 42.390959034868985 54.04275799648971 68.59165278983929 H 0.0 **** 0.06
36173 H 40.89962257145861 53.642778998986245 69.47632873046243 H 0.0 **** 0.06
36174 H 40.85347218876401 53.87315330029125 67.71146721492235 H 0.0 **** 0.06
36175 H 41.11596318829224 55.269573658738494 68.78452360942688 H 0.0 **** 0.06
36176 C 47.71959168051919 46.6146906253129 116.34680644258049 C 0.0 **** -0.24
36177 H 48.299435192348255 45.72184653773156 116.11192895938419 H 0.0 **** 0.06
36178 H 47.87005904681118 46.88182283380854 117.3923954522698 H 0.0 **** 0.06
36179 H 46.66233402476291 46.41749109221771 116.16903953561135 H 0.0 **** 0.06
36180 H 48.04780103001724 47.43736849962437 115.7103472596919 H 0.0 **** 0.06
36181 C 77.71564344825867 72.52227860811226 97.37926625116111 C 0.0 **** -0.24
36182 H 76.95622458534422 72.73629487549232 98.13141550879968 H 0.0 **** 0.06
36183 H 77.24534870285834 72.06363749409996 96.50965275582013 H 0.0 **** 0.06
36184 H 78.45566464747549 71.83887805142031 97.79539214334275 H 0.0 **** 0.06
36185 H 78.20455077901909 73.45026051727231 97.08244361382665 H 0.0 **** 0.06
36186 C 46.22321464942655 39.280002871178816 76.74627317768842 C 0.0 **** -0.24
36187 H 45.328281573599895 39.72788130954959 77.1791244296143 H 0.0 **** 0.06
36188 H 46.39545681818811 39.698150941774685 75.75382954103657 H 0.0 **** 0.06
36189 H 46.088438222696 38.20166298289724 76.6677823114828 H 0.0 **** 0.06
36190 H 47.08059263468158 39.494042651022205 77.3844647148198 H 0.0 **** 0.06
36191 C 127.1179144598689 69.91598100193193 50.92175285814022 C 0.0 **** -0.24
36192 H 126.11064953011899 69.52921151926859 50.763518031774936 H 0.0 **** 0.06
36193 H 127.23007644944099 70.22241676742146 51.96213899955066 H 0.0 **** 0.06
36194 H 127.28488195677633 70.77292102845874 50.26950973629465 H 0.0 **** 0.06
36195 H 127.8454860704363 69.13729568508165 50.69244474848108 H 0.0 **** 0.06
36196 C 86.85893155317244 49.60804658563035 106.90624449838649 C 0.0 **** -0.24
36197 H 87.82729024103084 49.62406247232616 107.40525887739616 H 0.0 **** 0.06
36198 H 87.00779722168662 49.53970299460491 105.82873875740145 H 0.0 **** 0.06
36199 H 86.31333190895609 50.52138801366158 107.14158443632968 H 0.0 **** 0.06
36200 H 86.28829989580407 48.74484137648244 107.24985588918165 H 0.0 **** 0.06
36201 C 80.08210201478732 19.76243953113425 130.70693877839605 C 0.0 **** -0.24
36202 H 80.34762927488462 19.013425012496896 129.96087444019423 H 0.0 **** 0.06
36203 H 79.43788793916573 20.514697763905133 130.25300796694054 H 0.0 **** 0.06
36204 H 80.98857075111876 20.237380459263477 131.0815211918961 H 0.0 **** 0.06
36205 H 79.5561442705718 19.281716833977157 131.53187066467382 H 0.0 **** 0.06
36206 C 41.33255918727993 108.4321153796406 110.59210086943884 C 0.0 **** -0.24
36207 H 41.83638026683109 109.10920595914868 111.28277387782606 H 0.0 **** 0.06
36208 H 41.16235711857937 108.9419278062067 109.64385775091759 H 0.0 **** 0.06
36209 H 40.376501499568825 108.12585417178425 111.01825262085336 H 0.0 **** 0.06
36210 H 41.955315280060766 107.55280877658683 110.42700021714103 H 0.0 **** 0.06
36211 C 4.542249842130541 24.31400614413738 88.4658739145244 C 0.0 **** -0.24
36212 H 4.157682755402689 25.255816912027655 88.85753335051092 H 0.0 **** 0.06
36213 H 3.8968562240442175 23.965174463115943 87.65918868871601 H 0.0 **** 0.06
36214 H 4.56185715109773 23.57030832509392 89.26315280814742 H 0.0 **** 0.06
36215 H 5.5521321560265235 24.464309724147995 88.08439913355176 H 0.0 **** 0.06
36216 C 54.78195556035077 32.603055147824875 106.73679731588007 C 0.0 **** -0.24
36217 H 53.83994691405982 32.52493417414482 107.27817722684897 H 0.0 **** 0.06
36218 H 54.72276789844513 33.42512361570502 106.02255100003536 H 0.0 **** 0.06
36219 H 54.97259369969997 31.67162074834897 106.20334952083174 H 0.0 **** 0.06
36220 H 55.5928248062651 32.790786633687276 107.44142522423908 H 0.0 **** 0.06
36221 C 119.33032694033275 79.70307532043233 33.34457232379769 C 0.0 **** -0.24
36222 H 118.39759777219183 80.0416335743206 33.7955014405356 H 0.0 **** 0.06
36223 H 119.62266753449049 78.75078134217046 33.788445836691864 H 0.0 **** 0.06
36224 H 120.11018816523429 80.44221291339187 33.52499543739634 H 0.0 **** 0.06
36225 H 119.18946582696314 79.57629528111892 32.27162107413932 H 0.0 **** 0.06
36226 C 68.81103073733124 16.971186061654507 68.24917284921412 C 0.0 **** -0.24
36227 H 68.87790113629688 15.944432266524515 68.60930127009192 H 0.0 **** 0.06
36228 H 68.35489933660546 17.5960113667834 69.01814947256952 H 0.0 **** 0.06
36229 H 68.19986939813774 17.000268666061075 67.34736440925002 H 0.0 **** 0.06
36230 H 69.81035738543937 17.342595538079564 68.02427138365294 H 0.0 **** 0.06
36231 C 118.0519358707165 78.1004350362971 72.45548663504712 C 0.0 **** -0.24
36232 H 118.65121892247737 77.76538881101625 71.60885783528443 H 0.0 **** 0.06
36233 H 117.80678346356763 79.15509068380945 72.33099880227599 H 0.0 **** 0.06
36234 H 118.61700140240455 77.96426838196781 73.37730441966573 H 0.0 **** 0.06
36235 H 117.13309696615657 77.51578475392702 72.50293763408882 H 0.0 **** 0.06
36236 C 70.57684470358912 54.14313045076793 119.25349517010191 C 0.0 **** -0.24
36237 H 70.72408137630906 54.000715790797216 118.18296871547824 H 0.0 **** 0.06
36238 H 69.69519185444132 53.58839074249508 119.57496460164985 H 0.0 **** 0.06
36239 H 70.43511588000325 55.20342831630447 119.46313737921733 H 0.0 **** 0.06
36240 H 71.45198110626582 53.77966676165815 119.79153871586828 H 0.0 **** 0.06
36241 C 57.04335569240645 77.18248244853707 11.325147826386932 C 0.0 **** -0.24
36242 H 56.76751587952582 77.10449081784625 12.376857473499538 H 0.0 **** 0.06
36243 H 57.26469387814075 76.18868410865736 10.933806759887325 H 0.0 **** 0.06
36244 H 57.92448098085708 77.81655999042407 11.227970904741952 H 0.0 **** 0.06
36245 H 56.21696051193692 77.61913353336948 10.764152000161225 H 0.0 **** 0.06
36246 C 93.62632791197544 26.419915204872098 38.663688222606936 C 0.0 **** -0.24
36247 H 94.34196146536993 27.153862112071636 39.03428237656609 H 0.0 **** 0.06
36248 H 94.15097829741913 25.6623012062243 38.081018069339095 H 0.0 **** 0.06
36249 H 92.88930675055252 26.91729195344317 38.03376949220827 H 0.0 **** 0.06
36250 H 93.12274213154728 25.946035405862233 39.506613960768 H 0.0 **** 0.06
36251 C 129.03142589011134 56.82720938439208 116.03289144306765 C 0.0 **** -0.24
36252 H 129.07887277715344 56.58605293063749 114.97035725575309 H 0.0 **** 0.06
36253 H 128.0048201996613 57.07477595392463 116.30275625345993 H 0.0 **** 0.06
36254 H 129.67768709851686 57.68013508523748 116.2398519743322 H 0.0 **** 0.06
36255 H 129.3634325490109 55.96875351244334 116.61521906741218 H 0.0 **** 0.06
36256 C 7.460054836131761 39.03044178512448 108.66968982905607 C 0.0 **** -0.24
36257 H 7.934587036028432 39.76204036887228 109.32367696498014 H 0.0 **** 0.06
36258 H 7.766760107919865 39.211356893388825 107.63931800793327 H 0.0 **** 0.06
36259 H 6.376292400539658 39.123363765775224 108.74738165881027 H 0.0 **** 0.06
36260 H 7.760435238524522 38.02617954570887 108.96822697316387 H 0.0 **** 0.06
36261 C 117.35755898100255 107.83737354544763 100.45467204723158 C 0.0 **** -0.24
36262 H 118.19513670811405 107.92336167459716 101.14555985220451 H 0.0 **** 0.06
36263 H 116.44338832108494 107.63721422505806 101.01367180487884 H 0.0 **** 0.06
36264 H 117.54396958892227 107.02023419887685 99.75783789200491 H 0.0 **** 0.06
36265 H 117.24745806257448 108.7697999676464 99.89945648559907 H 0.0 **** 0.06
36266 C 67.95056175886131 115.09031969657258 123.95586172992874 C 0.0 **** -0.24
36267 H 67.17621805541631 115.58272738346659 124.54510449346716 H 0.0 **** 0.06
36268 H 67.94908082776139 114.0224545700051 124.17273336720937 H 0.0 **** 0.06
36269 H 68.9227931097834 115.51170058138615 124.21060041295658 H 0.0 **** 0.06
36270 H 67.75349358008086 115.24646773447 122.89448739253521 H 0.0 **** 0.06
36271 C 127.29717173331915 76.61970583820484 91.61640802487742 C 0.0 **** -0.24
36272 H 127.71815628536353 77.56800558256248 91.9486067631796 H 0.0 **** 0.06
36273 H 126.93768759825525 76.05945789415682 92.47978910620392 H 0.0 **** 0.06
36274 H 128.06555414596653 76.04156683258647 91.10272402517882 H 0.0 **** 0.06
36275 H 126.46849363351214 76.80935398781995 90.93510883553182 H 0.0 **** 0.06
36276 C 76.35993345979459 40.81210187058758 98.17528788611128 C 0.0 **** -0.24
36277 H 76.8807557123046 41.350909217605846 97.38216151881005 H 0.0 **** 0.06
36278 H 76.70612162440584 39.778995052769204 98.19946446686933 H 0.0 **** 0.06
36279 H 75.2871843825258 40.83264906049821 97.98230156622719 H 0.0 **** 0.06
36280 H 76.56681823905754 41.28775427083835 99.13421122957493 H 0.0 **** 0.06
36281 C 1.5096775795080681 110.58225735792026 94.08034271539114 C 0.0 **** -0.24
36282 H 0.5643599331655196 110.12853327921435 94.37967619647836 H 0.0 **** 0.06
36283 H 2.2597416856680574 110.39605581907125 94.84925318803366 H 0.0 **** 0.06
36284 H 1.374168399881171 111.65632195267195 93.95536691822392 H 0.0 **** 0.06
36285 H 1.83834125416546 110.14519064030054 93.13692266147777 H 0.0 **** 0.06
36286 C 26.87494900774189 76.19783996513883 66.04260927659743 C 0.0 **** -0.24
36287 H 26.538715281315177 77.12308259445558 65.5738647091656 H 0.0 **** 0.06
36288 H 27.71879702296536 76.40985286476635 66.699391998257 H 0.0 **** 0.06
36289 H 27.181862863781873 75.49130708902528 65.27161794502061 H 0.0 **** 0.06
36290 H 26.059912427952526 75.76893706233045 66.62490653661021 H 0.0 **** 0.06
36291 C 48.665850833741885 86.61481148224871 87.94137121062866 C 0.0 **** -0.24
36292 H 49.67585974941693 86.68519816979627 87.53784281854948 H 0.0 **** 0.06
36293 H 48.09469479853387 85.88645356107854 87.36666264892762 H 0.0 **** 0.06
36294 H 48.181530796593584 87.59016073299665 87.87816908228257 H 0.0 **** 0.06
36295 H 48.71287119356542 86.30035062616157 88.98456486243583 H 0.0 **** 0.06
36296 C 60.781470198158786 127.86180723586318 5.519478183632714 C 0.0 **** -0.24
36297 H 60.11465299488481 127.01358402504886 5.676400801733095 H 0.0 **** 0.06
36298 H 60.41827541939409 128.71871672332531 6.088350092493513 H 0.0 **** 0.06
36299 H 60.80788297858163 128.11311611913328 4.459225065927228 H 0.0 **** 0.06
36300 H 61.78482952203666 127.6006248701874 5.856065937793758 H 0.0 **** 0.06
36301 C 58.08686687295115 14.814569529364718 103.53733326491302 C 0.0 **** -0.24
36302 H 57.617512519067134 14.57768832960528 104.49170279941525 H 0.0 **** 0.06
36303 H 59.11197648643244 14.442588509904226 103.53402656401087 H 0.0 **** 0.06
36304 H 58.09220432632482 15.8953299923065 103.39194803573108 H 0.0 **** 0.06
36305 H 57.52614230777969 14.343462173093087 102.72959671805137 H 0.0 **** 0.06
36306 C 84.01286259680597 44.052963351371346 62.865921081549914 C 0.0 **** -0.24
36307 H 84.87024062929481 44.03863855504176 62.19248643793942 H 0.0 **** 0.06
36308 H 84.34651089302115 44.30524914088653 63.87283826106321 H 0.0 **** 0.06
36309 H 83.54137179937621 43.07015667092173 62.875082812169836 H 0.0 **** 0.06
36310 H 83.29499539107137 44.797359860574545 62.523399684111155 H 0.0 **** 0.06
36311 C 3.180344604162059 98.09233750806388 117.70658667077768 C 0.0 **** -0.24
36312 H 3.41230244826545 97.57702796126617 116.7735662002694 H 0.0 **** 0.06
36313 H 4.107306533134931 98.3874296299231 118.19799757403172 H 0.0 **** 0.06
36314 H 2.6189445840988412 97.42473756017873 118.35983989010822 H 0.0 **** 0.06
36315 H 2.5833500153866 98.97838077410464 117.49280358063467 H 0.0 **** 0.06
36316 C 21.736912546352492 130.05793000143075 42.88426442332275 C 0.0 **** -0.24
36317 H 22.674176117584253 129.85260482288166 43.40195068712367 H 0.0 **** 0.06
36318 H 21.13271684007406 129.15069785322183 42.853606616278846 H 0.0 **** 0.06
36319 H 21.949894669934984 130.38769261349842 41.867233585946984 H 0.0 **** 0.06
36320 H 21.19242218098198 130.83912871749106 43.41412312478028 H 0.0 **** 0.06
36321 C 121.96642935113842 20.611438708309095 120.11917335704197 C 0.0 **** -0.24
36322 H 121.38349095856846 20.791798019236992 119.21577762998226 H 0.0 **** 0.06
36323 H 122.92350711742115 21.128956960578122 120.04269744390001 H 0.0 **** 0.06
36324 H 122.13983608739218 19.541562632965707 120.23202600363157 H 0.0 **** 0.06
36325 H 121.41928109833682 20.98481949771343 120.98448024697626 H 0.0 **** 0.06
36326 C 98.29317809185754 10.625773192524719 19.170634529245206 C 0.0 **** -0.24
36327 H 99.26121909779111 11.006704565577195 19.49533184007126 H 0.0 **** 0.06
36328 H 97.757449801696 10.21942931976514 20.029030926063314 H 0.0 **** 0.06
36329 H 98.4424879617392 9.840320523924674 18.429730256421607 H 0.0 **** 0.06
36330 H 97.7131631525066 11.436043871807442 18.7298811779566 H 0.0 **** 0.06
36331 C 8.24039363797499 90.73811213140841 67.46503592511517 C 0.0 **** -0.24
36332 H 7.877180912545214 91.71026719851267 67.79890495964972 H 0.0 **** 0.06
36333 H 8.871968036399153 90.3023832100386 68.23969559067538 H 0.0 **** 0.06
36334 H 8.818859275639738 90.86125462620974 66.54953120512606 H 0.0 **** 0.06
36335 H 7.393019050576299 90.0796165923471 67.27414484845109 H 0.0 **** 0.06
36336 C 44.47225362796459 57.287857925142546 69.97859494264925 C 0.0 **** -0.24
36337 H 45.046668348893576 56.537150698621815 69.43514586506157 H 0.0 **** 0.06
36338 H 44.731383531967964 57.24783630515233 71.0365242525348 H 0.0 **** 0.06
36339 H 43.40695268667875 57.08718134467331 69.85777948233391 H 0.0 **** 0.06
36340 H 44.70194956702298 58.27745022102417 69.5837185995529 H 0.0 **** 0.06
36341 C 39.4910674250971 65.83849180922093 10.059145991894635 C 0.0 **** -0.24
36342 H 40.032150279832734 65.73147428679067 10.998929491150552 H 0.0 **** 0.06
36343 H 40.165936847529196 66.22329118234484 9.293615289629368 H 0.0 **** 0.06
36344 H 38.660863404458865 66.53128731253173 10.194449766022935 H 0.0 **** 0.06
36345 H 39.10625015645476 64.86597860768498 9.748968103115459 H 0.0 **** 0.06
36346 C 129.4503164926426 26.746718950648642 22.33413978408433 C 0.0 **** -0.24
36347 H 130.43582414605245 26.474150886436348 22.71164975902198 H 0.0 **** 0.06
36348 H 129.55983871459276 27.42783775271323 21.4905199036821 H 0.0 **** 0.06
36349 H 128.88170567950814 27.235358315039917 23.125119407002813 H 0.0 **** 0.06
36350 H 128.92380407837553 25.848465292467125 22.010197561137858 H 0.0 **** 0.06
36351 C 20.2780056475441 1.5346082887020316 67.71206640869273 C 0.0 **** -0.24
36352 H 20.908956483595944 1.9517966456438103 68.49601175714915 H 0.0 **** 0.06
36353 H 20.4220525877095 2.0988141161456326 66.79063125961011 H 0.0 **** 0.06
36354 H 19.232491857661053 1.5953100141385619 68.0168512073024 H 0.0 **** 0.06
36355 H 20.548084238081344 0.49136950257815215 67.545480358284 H 0.0 **** 0.06
36356 C 94.07375801970858 16.19988870753582 126.11205730676681 C 0.0 **** -0.24
36357 H 95.12995023286756 16.132538662115593 125.85034663430783 H 0.0 **** 0.06
36358 H 93.9174788078894 15.77394218191634 127.1031929385384 H 0.0 **** 0.06
36359 H 93.48338702841328 15.647531085950021 125.38073888066121 H 0.0 **** 0.06
36360 H 93.76594763537385 17.24581759506512 126.11224011555598 H 0.0 **** 0.06
36361 C 5.993262949807956 58.39390909515511 42.46035782654068 C 0.0 **** -0.24
36362 H 6.308493159278299 57.6627894559534 41.715840893247716 H 0.0 **** 0.06
36363 H 6.871183305311661 58.807482726507345 42.95695140958256 H 0.0 **** 0.06
36364 H 5.353314110332633 57.90879824161814 43.19802947706182 H 0.0 **** 0.06
36365 H 5.440216989773631 59.19526496246321 41.97114175124796 H 0.0 **** 0.06
36366 C 74.83069614004816 43.453392247192866 50.39644290070635 C 0.0 **** -0.24
36367 H 73.94119964466293 43.40761014677622 51.023810724091305 H 0.0 **** 0.06
36368 H 75.54034761556713 42.68881148458942 50.71586993308307 H 0.0 **** 0.06
36369 H 75.29063142009699 44.43698627074221 50.488436208806576 H 0.0 **** 0.06
36370 H 74.55131994614854 43.27834846623102 49.3572022544613 H 0.0 **** 0.06
36371 C 81.59712729339853 8.17473518428449 50.79897701886907 C 0.0 **** -0.24
36372 H 81.47409798436698 9.179291465198787 50.39498332777251 H 0.0 **** 0.06
36373 H 82.65364486282613 7.989022643684468 50.99686094105576 H 0.0 **** 0.06
36374 H 81.22873605410419 7.446118426424391 50.07586287699817 H 0.0 **** 0.06
36375 H 81.03139899198638 8.083851866295642 51.72592693656932 H 0.0 **** 0.06
36376 C 44.87964495553268 28.13324491519691 0.5317134636620722 C 0.0 **** -0.24
36377 H 44.54971550713694 27.99711672747449 1.5613061542345577 H 0.0 **** 0.06
36378 H 44.05174577477649 27.923764891957745 -0.1459823104145812 H 0.0 **** 0.06
36379 H 45.70299520653455 27.4508992929471 0.32154386176028993 H 0.0 **** 0.06
36380 H 45.21412333368258 29.161198748408566 0.3899861490680223 H 0.0 **** 0.06
36381 C 66.34789933270105 97.98865581788486 16.96935961715093 C 0.0 **** -0.24
36382 H 66.5909193475842 97.79668665452145 15.92464504386055 H 0.0 **** 0.06
36383 H 65.75917634787967 98.90388684310294 17.043237737586196 H 0.0 **** 0.06
36384 H 67.2690786778129 98.10094136252178 17.542208732748747 H 0.0 **** 0.06
36385 H 65.77242295752751 97.1531084113932 17.367346954408276 H 0.0 **** 0.06
36386 C 16.76173607045928 48.28254074063689 21.9959469668392 C 0.0 **** -0.24
36387 H 16.14044717176211 47.77088831320001 22.73041161438448 H 0.0 **** 0.06
36388 H 16.1644455735161 49.031435644782775 21.474233397374462 H 0.0 **** 0.06
36389 H 17.145583134791963 47.559234179830504 21.27618482139013 H 0.0 **** 0.06
36390 H 17.595359451871907 48.770125234920826 22.501750200303718 H 0.0 **** 0.06
36391 C 26.298045654504648 4.195084942963003 90.31011709884882 C 0.0 **** -0.24
36392 H 26.353005306636227 5.004741109508888 89.5824689733694 H 0.0 **** 0.06
36393 H 25.426490565459503 3.5746993226217256 90.0964117095788 H 0.0 **** 0.06
36394 H 26.209659088065983 4.613162409928012 91.31246757231605 H 0.0 **** 0.06
36395 H 27.201361042888287 3.5882211710426475 90.24667301763665 H 0.0 **** 0.06
36396 C 51.1558150522938 52.67636632100522 93.46728581743787 C 0.0 **** -0.24
36397 H 51.08227833665302 53.1118734238122 92.46979822664946 H 0.0 **** 0.06
36398 H 50.780558360569444 53.38816677894954 94.20230892765917 H 0.0 **** 0.06
36399 H 52.19840304659846 52.44335478602346 93.68544037640177 H 0.0 **** 0.06
36400 H 50.56265609247848 51.76335387435773 93.50987856620682 H 0.0 **** 0.06
36401 C 74.7803418579425 107.57172901887698 99.84182078566388 C 0.0 **** -0.24
36402 H 74.91119989852565 108.5369058039092 99.35333089600317 H 0.0 **** 0.06
36403 H 73.83593166425979 107.56618415845392 100.38839855225052 H 0.0 **** 0.06
36404 H 75.60314137217233 107.40080687961044 100.53639409477047 H 0.0 **** 0.06
36405 H 74.76925425704533 106.782607743382 99.09036146201949 H 0.0 **** 0.06
36406 C 75.81279046842627 92.93957554092461 10.705403655733107 C 0.0 **** -0.24
36407 H 74.92441453965934 92.93568682847194 11.33705590408806 H 0.0 **** 0.06
36408 H 76.69643589450861 93.09449056089635 11.323949150729277 H 0.0 **** 0.06
36409 H 75.7335327412507 93.74328265465098 9.97337527027264 H 0.0 **** 0.06
36410 H 75.89398163111613 91.98385371389936 10.187681481026743 H 0.0 **** 0.06
36411 C 10.776886640928229 1.5835345836877082 37.75268385188512 C 0.0 **** -0.24
36412 H 10.73493443029783 0.6329571978450304 38.28490198741561 H 0.0 **** 0.06
36413 H 11.626804254792134 2.163052326622676 38.113489506673446 H 0.0 **** 0.06
36414 H 9.856296845769727 2.138302905083094 37.92897312889892 H 0.0 **** 0.06
36415 H 10.890641047175286 1.39713290951903 36.684942871488616 H 0.0 **** 0.06
36416 C 66.53685631872193 14.018356235232119 45.10805270873857 C 0.0 **** -0.24
36417 H 66.3827369170942 13.999026286015464 44.02995765802666 H 0.0 **** 0.06
36418 H 66.8504407101789 13.031310444842177 45.44758605639424 H 0.0 **** 0.06
36419 H 65.60544377763276 14.293677702207788 45.602923646281624 H 0.0 **** 0.06
36420 H 67.3079600141393 14.748511283044905 45.352435871495345 H 0.0 **** 0.06
36421 C 69.07600440882412 31.220054789291368 107.08998500060008 C 0.0 **** -0.24
36422 H 68.07486265190364 31.257343471330415 107.51855373965576 H 0.0 **** 0.06
36423 H 69.64516292256059 32.091125711422904 107.41827090859616 H 0.0 **** 0.06
36424 H 69.00542241020439 31.221476309318177 106.00201548738823 H 0.0 **** 0.06
36425 H 69.57948075932009 30.311257551685628 107.42065046713438 H 0.0 **** 0.06
36426 C 41.580659476056354 39.797903202008825 23.547958287048644 C 0.0 **** -0.24
36427 H 40.98540146305288 40.42239678651765 22.88079098782734 H 0.0 **** 0.06
36428 H 41.034134451134804 39.63862006361168 24.477563448149823 H 0.0 **** 0.06
36429 H 42.52707820539817 40.294677301660414 23.762237472781692 H 0.0 **** 0.06
36430 H 41.77344158316498 38.838265093177256 23.07033173593875 H 0.0 **** 0.06
36431 C 117.65979354112662 111.54440818018148 18.86005502985836 C 0.0 **** -0.24
36432 H 116.57427167656816 111.6363682506574 18.821285084229032 H 0.0 **** 0.06
36433 H 117.98040921170232 111.4678056130276 19.899453490024655 H 0.0 **** 0.06
36434 H 118.11497245898688 112.42308621598372 18.402838950343266 H 0.0 **** 0.06
36435 H 117.96889956240628 110.65114284124493 18.31765301355614 H 0.0 **** 0.06
36436 C 6.366441256589852 13.533303308931636 59.44442283293668 C 0.0 **** -0.24
36437 H 5.595999614475801 14.290004372220238 59.594368415682396 H 0.0 **** 0.06
36438 H 5.914548630769431 12.635314394767647 59.02297124547644 H 0.0 **** 0.06
36439 H 6.830064019748406 13.292922528597103 60.40146698808789 H 0.0 **** 0.06
36440 H 7.1233379868895526 13.916550231258412 58.759349361364 H 0.0 **** 0.06
36441 C 43.055263672314865 123.13115436206438 82.52682461202781 C 0.0 **** -0.24
36442 H 42.91121626369881 122.09802946968345 82.20907183984252 H 0.0 **** 0.06
36443 H 42.12289594650806 123.51767394189041 82.93788724018657 H 0.0 **** 0.06
36444 H 43.35463978592039 123.73532319135845 81.67104579920633 H 0.0 **** 0.06
36445 H 43.8333601648049 123.17062026869628 83.28905276263677 H 0.0 **** 0.06
36446 C 82.49907706615298 54.491854515069804 115.57299046148532 C 0.0 **** -0.24
36447 H 81.9762149467978 53.73231998960121 114.99101363445301 H 0.0 **** 0.06
36448 H 82.3206752265236 54.322305449065794 116.63487481083834 H 0.0 **** 0.06
36449 H 82.13191127923434 55.47972913826197 115.2940899321922 H 0.0 **** 0.06
36450 H 83.56858164949281 54.43084295061226 115.37027628879905 H 0.0 **** 0.06
36451 C 22.28422918849708 46.1591923968667 78.60053277544003 C 0.0 **** -0.24
36452 H 22.997107822979956 45.43723833823262 78.99862553795211 H 0.0 **** 0.06
36453 H 22.123042633458 45.96218077976708 77.54006643532186 H 0.0 **** 0.06
36454 H 22.67855022513612 47.16727169068014 78.72706540322449 H 0.0 **** 0.06
36455 H 21.33859023528038 46.067956659490534 79.13520884435076 H 0.0 **** 0.06
36456 C 59.04785896366573 14.239461574583117 14.31217433450874 C 0.0 **** -0.24
36457 H 59.71372520204906 14.66651519387402 13.561617951821916 H 0.0 **** 0.06
36458 H 59.49081313083707 14.360980345502355 15.300769435926952 H 0.0 **** 0.06
36459 H 58.902417349781544 13.178699093160887 14.105810063403908 H 0.0 **** 0.06
36460 H 58.08748420048201 14.752224866570828 14.278343956222386 H 0.0 **** 0.06
36461 C 97.24399991997609 57.41220798698538 59.02629191901353 C 0.0 **** -0.24
36462 H 97.66170801762098 56.818550687241526 59.839932792519846 H 0.0 **** 0.06
36463 H 97.79621463381247 57.2089982873718 58.108793039487566 H 0.0 **** 0.06
36464 H 97.3220022314872 58.47118428097437 59.27237181666597 H 0.0 **** 0.06
36465 H 96.19548461428934 57.14798653441872 58.88634841118028 H 0.0 **** 0.06
36466 C 33.27514469991171 33.727620416135835 98.51132657107226 C 0.0 **** -0.24
36467 H 33.14249780609471 34.033116197994275 97.47350356462252 H 0.0 **** 0.06
36468 H 32.49217688018488 33.018888367209854 98.78461186757309 H 0.0 **** 0.06
36469 H 33.21448700038138 34.6029823291376 99.15791038555122 H 0.0 **** 0.06
36470 H 34.25020845658523 33.25556944322665 98.63001100438694 H 0.0 **** 0.06
36471 C 83.05013192412753 73.59907172129726 75.92467656820538 C 0.0 **** -0.24
36472 H 82.12995276618405 73.84110037677993 76.45583556479319 H 0.0 **** 0.06
36473 H 83.85607194202167 74.24097354074848 76.28355863581754 H 0.0 **** 0.06
36474 H 82.90616794281331 73.76024400299056 74.85569695612949 H 0.0 **** 0.06
36475 H 83.30935289103677 72.55605103194443 76.10282181789884 H 0.0 **** 0.06
36476 C 124.72699787688975 23.68349178052756 79.04778758702801 C 0.0 **** -0.24
36477 H 125.41607245050818 23.328181492300303 79.81353510649731 H 0.0 **** 0.06
36478 H 123.91884099655374 24.24444578384508 79.51769562105335 H 0.0 **** 0.06
36479 H 124.3122891781556 22.83172398634283 78.50879428075407 H 0.0 **** 0.06
36480 H 125.2604719343696 24.330305499215285 78.3504741891613 H 0.0 **** 0.06
36481 C 85.6263276365795 96.79770276785706 65.1830473513568 C 0.0 **** -0.24
36482 H 84.93409330308208 95.99309601758 65.42862016449479 H 0.0 **** 0.06
36483 H 86.29674442443871 96.47134856453874 64.38799406215327 H 0.0 **** 0.06
36484 H 86.208850629295 97.05810177796877 66.06617063217048 H 0.0 **** 0.06
36485 H 85.06352570879238 97.67031336674239 64.8487655761705 H 0.0 **** 0.06
36486 C 28.827617265685944 125.38532481548872 68.43683348525602 C 0.0 **** -0.24
36487 H 28.90016287950425 125.90922242586502 69.38951436274176 H 0.0 **** 0.06
36488 H 28.876744630325618 124.30993375245305 68.61042232173558 H 0.0 **** 0.06
36489 H 29.653287301269813 125.6874177832492 67.7932721064997 H 0.0 **** 0.06
36490 H 27.881319315175233 125.63306889129632 67.95639773770844 H 0.0 **** 0.06
36491 C 46.24923355439387 36.41040767595442 49.90949196380775 C 0.0 **** -0.24
36492 H 46.36321802736766 36.382854071260425 50.99310804034731 H 0.0 **** 0.06
36493 H 46.51655349092305 35.439378060462104 49.49081058884188 H 0.0 **** 0.06
36494 H 46.901723322759224 37.17752633093525 49.494567338795164 H 0.0 **** 0.06
36495 H 45.21282821488317 36.6404923638224 49.66000940687063 H 0.0 **** 0.06
36496 C 61.00784359315401 107.65703129061082 7.743078320765218 C 0.0 **** -0.24
36497 H 60.04534137723897 108.16621724528223 7.6862834041075665 H 0.0 **** 0.06
36498 H 61.55427462704755 107.81071243332082 6.812031729892404 H 0.0 **** 0.06
36499 H 60.84559112145344 106.59060330735295 7.897816583800388 H 0.0 **** 0.06
36500 H 61.58474078614215 108.06190215022858 8.573890346782385 H 0.0 **** 0.06
36501 C 5.461033291701995 103.56310615496034 94.42576148223091 C 0.0 **** -0.24
36502 H 5.666205738312897 104.5189017653686 94.90715887291253 H 0.0 **** 0.06
36503 H 4.888108411279575 103.73174241779792 93.51421206833115 H 0.0 **** 0.06
36504 H 4.888920707300542 102.93048213243816 95.10383925248739 H 0.0 **** 0.06
36505 H 6.4022910193176585 103.0713973127293 94.17761063580038 H 0.0 **** 0.06
36506 C 17.29318117774912 8.614795198673406 92.27755382130198 C 0.0 **** -0.24
36507 H 17.886638220524247 9.42329041493149 92.70472089155422 H 0.0 **** 0.06
36508 H 17.574832047499527 8.46906989546806 91.23482213038716 H 0.0 **** 0.06
36509 H 16.235430530963697 8.872086835571306 92.33564917129391 H 0.0 **** 0.06
36510 H 17.474986292853174 7.696659203965435 92.83579179926585 H 0.0 **** 0.06
36511 C 47.27330342190115 24.170725603502838 50.46401119094901 C 0.0 **** -0.24
36512 H 48.28564127195957 24.48545608894581 50.719013766765215 H 0.0 **** 0.06
36513 H 46.577862536393475 24.984188912940468 50.66817492270164 H 0.0 **** 0.06
36514 H 47.00169180034177 23.30160923090162 51.06342869678568 H 0.0 **** 0.06
36515 H 47.22920419919404 23.910451598906654 49.406897611938035 H 0.0 **** 0.06
36516 C 54.732099389579986 57.7785170362712 127.57686948891212 C 0.0 **** -0.24
36517 H 55.07196697062798 57.935276267950044 126.55258383335477 H 0.0 **** 0.06
36518 H 54.5875681034 58.74303424637179 128.0629864442389 H 0.0 **** 0.06
36519 H 55.480096644246885 57.20364328867436 128.12241391678842 H 0.0 **** 0.06
36520 H 53.789829551606914 57.23090765894446 127.56677108005172 H 0.0 **** 0.06
36521 C 16.115348096738156 26.88147789290224 94.43002976709242 C 0.0 **** -0.24
36522 H 16.825751319467088 27.670956915001582 94.18609213520085 H 0.0 **** 0.06
36523 H 15.407545331939652 26.76417524534834 93.60870408697696 H 0.0 **** 0.06
36524 H 15.575962304615825 27.146608633272415 95.33871236411159 H 0.0 **** 0.06
36525 H 16.652123541264004 25.945504452280062 94.58455584080572 H 0.0 **** 0.06
36526 C 57.13714224694165 100.10773015172862 56.00681461680452 C 0.0 **** -0.24
36527 H 57.192594343222325 99.7515426931158 54.97843093535826 H 0.0 **** 0.06
36528 H 57.57865238637615 99.36572681170126 56.67150722684241 H 0.0 **** 0.06
36529 H 56.094483499153924 100.26728694642877 56.27979772865396 H 0.0 **** 0.06
36530 H 57.68296795964841 101.04695106388999 56.095368713396255 H 0.0 **** 0.06
36531 C 33.915290684804646 10.648587849887548 45.04538135093901 C 0.0 **** -0.24
36532 H 34.434610178600856 10.739280547008605 45.99968612217572 H 0.0 **** 0.06
36533 H 34.63499002684424 10.739717694573272 44.23095409214403 H 0.0 **** 0.06
36534 H 33.16948692315004 11.438533632474872 44.96169843095416 H 0.0 **** 0.06
36535 H 33.42489092295278 9.67755697355841 44.98991524347366 H 0.0 **** 0.06
36536 C 39.84377585311529 113.41344879960498 23.38331550764771 C 0.0 **** -0.24
36537 H 38.93390501578398 113.96915996734073 23.610396187317946 H 0.0 **** 0.06
36538 H 40.54853700678808 113.51774582849886 24.20790102922743 H 0.0 **** 0.06
36539 H 40.29101846113042 113.80750222778595 22.47079405080258 H 0.0 **** 0.06
36540 H 39.599819516129685 112.36064681766297 23.243127306524542 H 0.0 **** 0.06
36541 C 61.92156491130601 3.094104002989752 71.18269181677417 C 0.0 **** -0.24
36542 H 61.954630294983815 3.7815652748124364 70.33848920299192 H 0.0 **** 0.06
36543 H 61.86836783348042 3.662049504855162 72.11208920609809 H 0.0 **** 0.06
36544 H 62.82018314092785 2.476999041041381 71.18418380102509 H 0.0 **** 0.06
36545 H 61.042687996940856 2.45514098618483 71.09719271184798 H 0.0 **** 0.06
36546 C 18.846430419140376 125.96003155474799 117.0709756091284 C 0.0 **** -0.24
36547 H 18.526063770007994 126.14816509685326 116.0461934586281 H 0.0 **** 0.06
36548 H 18.135303024679104 125.29035397261495 117.55647569559952 H 0.0 **** 0.06
36549 H 18.890344771317586 126.90170004994823 117.61713161270373 H 0.0 **** 0.06
36550 H 19.833731279551415 125.4975134087604 117.0636625417578 H 0.0 **** 0.06
36551 C 53.62505457941873 70.77134886195563 31.47983813403866 C 0.0 **** -0.24
36552 H 53.006483132238486 70.36817139317708 32.28201317395502 H 0.0 **** 0.06
36553 H 54.65019484402069 70.88577448294132 31.833683788114712 H 0.0 **** 0.06
36554 H 53.23536517528626 71.74212237873382 31.17430026459408 H 0.0 **** 0.06
36555 H 53.6078421667963 70.08924078456329 30.63029429883065 H 0.0 **** 0.06
36556 C 41.421783548108294 82.92225048455622 113.77928499655819 C 0.0 **** -0.24
36557 H 41.89732834671997 83.48700137464584 112.97773523738529 H 0.0 **** 0.06
36558 H 40.39211347101906 82.69445973288683 113.50110618136746 H 0.0 **** 0.06
36559 H 41.4287297086459 83.51435240128468 114.69427052953039 H 0.0 **** 0.06
36560 H 41.96823665315702 81.99413535175115 113.94326885730196 H 0.0 **** 0.06
36561 C 51.08396302611186 2.8528532557495687 46.681859078681 C 0.0 **** -0.24
36562 H 50.721325264556384 3.3335218326263565 47.59001490099196 H 0.0 **** 0.06
36563 H 52.14270011513314 3.077578954836479 46.549849048329435 H 0.0 **** 0.06
36564 H 50.52416593426878 3.226858459892128 45.82455878166283 H 0.0 **** 0.06
36565 H 50.94722687292125 1.7747800333530108 46.76278365346795 H 0.0 **** 0.06
36566 C 102.16935726980327 46.43577735741687 111.10692542903259 C 0.0 **** -0.24
36567 H 102.81952595743806 46.73784220729297 111.92774998524855 H 0.0 **** 0.06
36568 H 102.26810449193258 45.36247444346233 110.942039540407 H 0.0 **** 0.06
36569 H 102.4539684589852 46.97142450221108 110.20188840438192 H 0.0 **** 0.06
36570 H 101.13444184505394 46.671769694574834 111.35800160075813 H 0.0 **** 0.06
36571 C 114.10829561711367 124.67399243406915 34.92335959715301 C 0.0 **** -0.24
36572 H 113.65649189274055 124.5731153601332 35.91107655059489 H 0.0 **** 0.06
36573 H 113.3469303847883 124.98348561235889 34.205979964872036 H 0.0 **** 0.06
36574 H 114.52937628295743 123.71608888761868 34.617511012706636 H 0.0 **** 0.06
36575 H 114.89845827150774 125.42386876243742 34.9610947400943 H 0.0 **** 0.06
36576 C 70.39280883796388 42.667526325018386 0.9921816642065622 C 0.0 **** -0.24
36577 H 70.2474108614779 43.73966969063511 0.8614931805032064 H 0.0 **** 0.06
36578 H 69.5019161405123 42.1364697423211 0.6552074186723722 H 0.0 **** 0.06
36579 H 70.56849336270378 42.45132541280341 2.046081372302492 H 0.0 **** 0.06
36580 H 71.25265799997024 42.343244201547385 0.40569465411121364 H 0.0 **** 0.06
36581 C 66.67778009941395 68.23781124574244 37.58932614624038 C 0.0 **** -0.24
36582 H 65.68422354368215 68.32540468651955 37.14940314874576 H 0.0 **** 0.06
36583 H 67.02537125172046 67.20936734951208 37.49871193176429 H 0.0 **** 0.06
36584 H 66.63438167474044 68.51616311809953 38.64189834568697 H 0.0 **** 0.06
36585 H 67.36632764547517 68.9022215293711 37.06646692308513 H 0.0 **** 0.06
36586 C 109.60512247115949 22.42095720421596 17.931444096602725 C 0.0 **** -0.24
36587 H 109.73113600175284 22.264787301474158 16.860196223055986 H 0.0 **** 0.06
36588 H 110.50148126156967 22.087637517425193 18.454561082618753 H 0.0 **** 0.06
36589 H 108.74518244938045 21.85115126821826 18.282549191150174 H 0.0 **** 0.06
36590 H 109.44355923985356 23.481317147718734 18.12701663147734 H 0.0 **** 0.06
36591 C 60.25752847879906 41.56686337442255 107.82109275412017 C 0.0 **** -0.24
36592 H 59.59728082712033 42.00414193119519 108.57011076159912 H 0.0 **** 0.06
36593 H 59.66014015661287 41.06930134483298 107.0563151672994 H 0.0 **** 0.06
36594 H 60.917647909431736 40.84225674125611 108.29631370559164 H 0.0 **** 0.06
36595 H 60.85405054355547 42.35484447961693 107.36006375200213 H 0.0 **** 0.06
36596 C 36.82085532010288 124.50928812550623 89.62722105239908 C 0.0 **** -0.24
36597 H 36.58654918381501 124.65877185143309 88.57265631293916 H 0.0 **** 0.06
36598 H 37.77201728244481 124.98893840760914 89.8593073032973 H 0.0 **** 0.06
36599 H 36.890829546298505 123.44172024450445 89.83616579469405 H 0.0 **** 0.06
36600 H 36.032946638783216 124.9486254751043 90.23974462186754 H 0.0 **** 0.06
36601 C 61.250099229056815 110.3763450476965 55.195266448328965 C 0.0 **** -0.24
36602 H 60.23168130164106 110.50106169439903 54.825960058543615 H 0.0 **** 0.06
36603 H 61.934926182895396 110.29793624179536 54.35097884093986 H 0.0 **** 0.06
36604 H 61.309518006738784 109.469508460855 55.796516182718136 H 0.0 **** 0.06
36605 H 61.52250318201155 111.23665979559658 55.80670090591653 H 0.0 **** 0.06
36606 C 98.14797262312786 113.92792343180925 72.84850673479455 C 0.0 **** -0.24
36607 H 97.27008329412259 114.5651154232808 72.96003350200857 H 0.0 **** 0.06
36608 H 98.7468595553398 113.97180240358405 73.7575884073497 H 0.0 **** 0.06
36609 H 98.74292846262405 114.27523986290886 72.0035976650778 H 0.0 **** 0.06
36610 H 97.83032646220474 112.90114881554733 72.67121547923388 H 0.0 **** 0.06
36611 C 48.99293905291174 80.0149778355127 118.11016259552653 C 0.0 **** -0.24
36612 H 49.17431059497537 79.11547770353289 118.69789068554041 H 0.0 **** 0.06
36613 H 49.39190217879569 79.87739697753992 117.10394614789027 H 0.0 **** 0.06
36614 H 49.48562671310776 80.86336489356789 118.58310511963242 H 0.0 **** 0.06
36615 H 47.92067856514256 80.20155804330702 118.05372039654765 H 0.0 **** 0.06
36616 C 85.76010641328476 12.491807100530593 50.3812229878594 C 0.0 **** -0.24
36617 H 85.22012028950876 12.373609318881506 51.32118138839833 H 0.0 **** 0.06
36618 H 85.84016129757663 11.525082534797605 49.88510178980903 H 0.0 **** 0.06
36619 H 86.75849884476169 12.88166008557016 50.583219905878906 H 0.0 **** 0.06
36620 H 85.2209929942385 13.187608279321694 49.73885870479643 H 0.0 **** 0.06
36621 C 84.94809045973057 57.164550787424616 4.6325901356969155 C 0.0 **** -0.24
36622 H 85.88830319759188 56.62964696719581 4.4968425562403525 H 0.0 **** 0.06
36623 H 84.9674471400757 58.08669674614367 4.050135223687619 H 0.0 **** 0.06
36624 H 84.8162859563916 57.40395275860146 5.687414147586082 H 0.0 **** 0.06
36625 H 84.12248618300714 56.538374172009696 4.295631908159038 H 0.0 **** 0.06
36626 C 106.5230458763761 107.43396513983711 39.17946531411269 C 0.0 **** -0.24
36627 H 107.6105212989986 107.46651271573329 39.11118396551217 H 0.0 **** 0.06
36628 H 106.17720717532518 108.23153694813672 39.837566608287915 H 0.0 **** 0.06
36629 H 106.21351270372054 106.4697508054832 39.5815453446604 H 0.0 **** 0.06
36630 H 106.09282764612504 107.56958669654145 38.18722565920096 H 0.0 **** 0.06
36631 C 120.10402460130801 38.237048282964224 64.96269242535067 C 0.0 **** -0.24
36632 H 120.29710260513944 39.26072042024856 65.28417762519246 H 0.0 **** 0.06
36633 H 120.48303026464262 38.097837382054905 63.949661544061655 H 0.0 **** 0.06
36634 H 119.03085877471926 38.04659331657052 64.97994040000259 H 0.0 **** 0.06
36635 H 120.60640983897203 37.5433788565949 65.63742445388942 H 0.0 **** 0.06
36636 C 122.58059502416536 87.49289152633416 72.87772079632165 C 0.0 **** -0.24
36637 H 122.6543042058723 88.5676664440994 72.71339711301277 H 0.0 **** 0.06
36638 H 121.65178048537393 87.12219317077832 72.44238892671967 H 0.0 **** 0.06
36639 H 122.5873209479598 87.28788457461351 73.94805081910874 H 0.0 **** 0.06
36640 H 123.42692754826858 86.99441501441433 72.40583854643069 H 0.0 **** 0.06
36641 C 90.48612502558741 45.23193065007354 20.100174133773407 C 0.0 **** -0.24
36642 H 90.5946047802201 45.227391235385554 21.18506078379957 H 0.0 **** 0.06
36643 H 91.31535552233929 44.685323389197514 19.64996106114478 H 0.0 **** 0.06
36644 H 90.48954349177369 46.26014320669673 19.73961252496713 H 0.0 **** 0.06
36645 H 89.54523524344583 44.75328897659004 19.827922305981076 H 0.0 **** 0.06
36646 C 75.48668591687697 101.20786040550604 66.73474447674391 C 0.0 **** -0.24
36647 H 75.2469760517164 100.47581861441867 65.96311600209536 H 0.0 **** 0.06
36648 H 75.70538705034222 102.16868834943347 66.26751325511322 H 0.0 **** 0.06
36649 H 76.35717976562871 100.87088279487969 67.29662610000634 H 0.0 **** 0.06
36650 H 74.63763321997139 101.31645896743751 67.40934607869579 H 0.0 **** 0.06
36651 C 40.311860832064696 53.96369692737787 55.58258977387588 C 0.0 **** -0.24
36652 H 39.883270548195895 53.37049168919815 56.39071935170328 H 0.0 **** 0.06
36653 H 41.21208573946973 54.464429562086465 55.93905214205296 H 0.0 **** 0.06
36654 H 39.58609382535619 54.707370130663264 55.25437512562148 H 0.0 **** 0.06
36655 H 40.565657819939105 53.30989897771637 54.74824764177177 H 0.0 **** 0.06
36656 C 11.370062420928647 79.70978022527231 56.4289687408574 C 0.0 **** -0.24
36657 H 11.031216789054682 79.65056417413203 55.394960746334604 H 0.0 **** 0.06
36658 H 12.04800246710299 78.88225516829274 56.637372263880806 H 0.0 **** 0.06
36659 H 10.509413219565147 79.65254790708033 57.096347910064935 H 0.0 **** 0.06
36660 H 11.889582236890604 80.65509328408982 56.58693985215301 H 0.0 **** 0.06
36661 C 51.25315415408086 90.71139048389975 55.40125151676958 C 0.0 **** -0.24
36662 H 52.31415268694553 90.53114279224988 55.56772442892891 H 0.0 **** 0.06
36663 H 50.87320221388765 89.99609513628096 54.67128877754659 H 0.0 **** 0.06
36664 H 51.11118541541978 91.72454716099085 55.025710746012905 H 0.0 **** 0.06
36665 H 50.71238544309887 90.59415009572498 56.34032518720505 H 0.0 **** 0.06
36666 C 39.48362694577017 4.036469131259395 76.3615056000508 C 0.0 **** -0.24
36667 H 40.1082261834151 4.105708047341153 77.25242774350889 H 0.0 **** 0.06
36668 H 39.465574194244056 5.002822790438245 75.8558265788732 H 0.0 **** 0.06
36669 H 38.470791233407795 3.757401400196585 76.64913973980862 H 0.0 **** 0.06
36670 H 39.89181912893713 3.282252756872282 75.68885244874926 H 0.0 **** 0.06
36671 C 13.21088609578372 49.09744291531334 127.78578833154927 C 0.0 **** -0.24
36672 H 14.254994247580733 48.989761685620095 127.4917349408206 H 0.0 **** 0.06
36673 H 12.711567503380575 49.78607127496937 127.10549405996187 H 0.0 **** 0.06
36674 H 13.159390984930948 49.48810646978356 128.80285361918857 H 0.0 **** 0.06
36675 H 12.720502587448212 48.12481690529958 127.74519116003898 H 0.0 **** 0.06
36676 C 126.16054414304847 108.36004776530714 11.854691118239487 C 0.0 **** -0.24
36677 H 127.11342021768114 107.87938524462535 12.076907709232387 H 0.0 **** 0.06
36678 H 125.34726147222207 107.76382160449597 12.268948472673912 H 0.0 **** 0.06
36679 H 126.03845842061422 108.44267516929298 10.774602107759392 H 0.0 **** 0.06
36680 H 126.14413254852612 109.35543027513641 12.299042117763236 H 0.0 **** 0.06
36681 C 59.41449867824073 75.92915074620268 3.403299912322325 C 0.0 **** -0.24
36682 H 60.25921686856674 76.36975391588481 3.932116943145644 H 0.0 **** 0.06
36683 H 59.05775464557175 75.05744088248139 3.952565894720351 H 0.0 **** 0.06
36684 H 59.728993890143926 75.62615714939825 2.405480282354489 H 0.0 **** 0.06
36685 H 58.611858020615216 76.66346986456216 3.325255324837457 H 0.0 **** 0.06
36686 C 80.68695064310991 11.98700814055303 109.44076243990568 C 0.0 **** -0.24
36687 H 79.81525519971132 11.348634878623272 109.29918891243516 H 0.0 **** 0.06
36688 H 81.55071710439329 11.372240728500742 109.69245463028079 H 0.0 **** 0.06
36689 H 80.49321543454329 12.69123889660952 110.25050513969519 H 0.0 **** 0.06
36690 H 80.88755878071669 12.537580252987908 108.52125048401052 H 0.0 **** 0.06
36691 C 106.06969795430331 60.852319252907236 107.42727123974981 C 0.0 **** -0.24
36692 H 105.1415676091056 60.90915793801436 106.85922559654102 H 0.0 **** 0.06
36693 H 106.82117855494607 60.320230702241005 106.84435861830622 H 0.0 **** 0.06
36694 H 105.89159892243248 60.32167451178269 108.36223505043722 H 0.0 **** 0.06
36695 H 106.42345748683113 61.86093575185829 107.64404876621455 H 0.0 **** 0.06
36696 C 49.04324885217693 49.0169077597605 106.66863996300316 C 0.0 **** -0.24
36697 H 48.25262888546748 49.040335628692304 105.91907032766852 H 0.0 **** 0.06
36698 H 49.813191609648015 48.308689392491004 106.36280446155166 H 0.0 **** 0.06
36699 H 48.62553495678711 48.70808788513878 107.62699264705526 H 0.0 **** 0.06
36700 H 49.48046790894179 50.00990255684766 106.76680934814266 H 0.0 **** 0.06
36701 C 20.4195882402042 6.139744324599615 32.60317265002516 C 0.0 **** -0.24
36702 H 21.423986377208585 6.117918299091084 33.027525742884166 H 0.0 **** 0.06
36703 H 19.903745313382167 5.20958495248783 32.844438406260224 H 0.0 **** 0.06
36704 H 20.485475841257347 6.2490384906958845 31.52058820130327 H 0.0 **** 0.06
36705 H 19.86809890588883 6.9810404744893475 33.02071386824093 H 0.0 **** 0.06
36706 C 35.8098877671315 97.04250115877913 69.1724936366747 C 0.0 **** -0.24
36707 H 36.48526532770791 97.58080369173885 68.50720270295275 H 0.0 **** 0.06
36708 H 35.46879192610848 97.71181419343011 69.96282091419155 H 0.0 **** 0.06
36709 H 36.33563721433924 96.19596443005626 69.61507086224933 H 0.0 **** 0.06
36710 H 34.952003941546224 96.68220127362568 68.60576465345058 H 0.0 **** 0.06
36711 C 95.42477678311471 130.56358154556057 18.977199708403532 C 0.0 **** -0.24
36712 H 94.52528291635394 131.0046720536523 19.40669990396603 H 0.0 **** 0.06
36713 H 95.82721876334114 129.8192753408287 19.66457167044925 H 0.0 **** 0.06
36714 H 96.16766330920501 131.34353588251713 18.811298260052183 H 0.0 **** 0.06
36715 H 95.17834741310745 130.08774138191927 18.02842885619856 H 0.0 **** 0.06
36716 C 124.75001762516625 15.09450712534155 125.65896329825529 C 0.0 **** -0.24
36717 H 124.4844580977135 14.349647024129396 124.9085493747263 H 0.0 **** 0.06
36718 H 125.65865726681585 15.612916737397583 125.35179236794764 H 0.0 **** 0.06
36719 H 124.91902406776398 14.600334182148671 126.61610510505068 H 0.0 **** 0.06
36720 H 123.93797975157307 15.81387508044105 125.76005559002678 H 0.0 **** 0.06
36721 C 120.38077209234449 84.17147586347627 112.22180508111111 C 0.0 **** -0.24
36722 H 121.21454791005544 83.4967406012072 112.02440762731987 H 0.0 **** 0.06
36723 H 120.28479245604572 84.32398652449342 113.29631884023212 H 0.0 **** 0.06
36724 H 119.46131507553497 83.7357030183519 111.83210104073413 H 0.0 **** 0.06
36725 H 120.56532330590657 85.12863064096814 111.73300132822897 H 0.0 **** 0.06
36726 C 82.68195152954 56.79029059365365 83.26606896007435 C 0.0 **** -0.24
36727 H 83.21604729440494 57.177301524747605 82.39814227210657 H 0.0 **** 0.06
36728 H 81.63146299613197 56.64774914666529 83.01108604078425 H 0.0 **** 0.06
36729 H 82.76244804650312 57.501645551367545 84.088045180673 H 0.0 **** 0.06
36730 H 83.11708149434602 55.837307473449385 83.56547253906602 H 0.0 **** 0.06
36731 C 83.18748685812957 129.05594651934314 90.03194242445372 C 0.0 **** -0.24
36732 H 83.31340327564388 129.9929296961484 89.4886127804788 H 0.0 **** 0.06
36733 H 82.12784846569329 128.80224154219172 90.07621194707764 H 0.0 **** 0.06
36734 H 83.57808521887253 129.16790146120468 91.04316418898361 H 0.0 **** 0.06
36735 H 83.73077832392678 128.2633357077599 89.51802130093915 H 0.0 **** 0.06
36736 C 125.71926263121932 94.70593028523069 58.266812980964076 C 0.0 **** -0.24
36737 H 125.94700090250754 94.56957310098664 59.32452774884146 H 0.0 **** 0.06
36738 H 126.11973582748519 93.86571800630793 57.69896788485751 H 0.0 **** 0.06
36739 H 126.17232060049216 95.63198896122879 57.91500736499185 H 0.0 **** 0.06
36740 H 124.6389960360062 94.75469258382623 58.13118565574145 H 0.0 **** 0.06
36741 C 121.29541815683623 125.5477233401383 77.38489392061558 C 0.0 **** -0.24
36742 H 121.38897455249935 125.47888284238971 76.30084517301314 H 0.0 **** 0.06
36743 H 120.57543663999496 126.32563012544554 77.63875039621865 H 0.0 **** 0.06
36744 H 122.26536063644392 125.79360101003618 77.8183062907968 H 0.0 **** 0.06
36745 H 120.9526272690521 124.59101863461888 77.78050237614558 H 0.0 **** 0.06
36746 C 129.5971090186798 60.94927516866966 61.050906432942554 C 0.0 **** -0.24
36747 H 129.93005885669984 61.25443862019242 60.05907422889163 H 0.0 **** 0.06
36748 H 130.27297749684342 61.35731501501533 61.802563112379005 H 0.0 **** 0.06
36749 H 129.5950371504912 59.86129534356536 61.114570063670186 H 0.0 **** 0.06
36750 H 128.5886424637178 61.324654778249425 61.22612302630233 H 0.0 **** 0.06
36751 C 42.23529026148765 103.77869345680261 35.60841558019811 C 0.0 **** -0.24
36752 H 43.250128022759014 103.3838630547321 35.56663388973797 H 0.0 **** 0.06
36753 H 41.92949673321222 104.10174081076815 34.61370800979813 H 0.0 **** 0.06
36754 H 42.203453074848085 104.62665140891676 36.29239888567173 H 0.0 **** 0.06
36755 H 41.557706117365996 103.00099734637433 35.96216409427663 H 0.0 **** 0.06
36756 C 79.46531621638972 129.5058504146916 122.77082205522942 C 0.0 **** -0.24
36757 H 79.61848575144299 129.09039463893188 121.77422779145746 H 0.0 **** 0.06
36758 H 78.90558431425764 130.43826013141626 122.69294507589333 H 0.0 **** 0.06
36759 H 80.43200350821729 129.69949919512825 123.2352273462756 H 0.0 **** 0.06
36760 H 78.90573657706976 128.79519981579418 123.3787199087482 H 0.0 **** 0.06
36761 C 105.38061556972896 57.06467642354599 36.489157585091306 C 0.0 **** -0.24
36762 H 104.56933961526148 56.99900983860593 35.76448754403842 H 0.0 **** 0.06
36763 H 105.52460461734776 58.10566255000529 36.77979232209552 H 0.0 **** 0.06
36764 H 106.29868489794622 56.68184271412994 36.042192720650434 H 0.0 **** 0.06
36765 H 105.13012966583587 56.473252032077454 37.36927145054898 H 0.0 **** 0.06
36766 C 48.714268880894565 66.0650825329136 7.635828265172204 C 0.0 **** -0.24
36767 H 47.95766242252398 66.29460870863312 6.8849375140385725 H 0.0 **** 0.06
36768 H 48.51251035252727 65.08412062309814 8.066639969669954 H 0.0 **** 0.06
36769 H 48.68666492858435 66.8196276696438 8.421249213240884 H 0.0 **** 0.06
36770 H 49.69905069680257 66.06093330855735 7.168902132321907 H 0.0 **** 0.06
36771 C 19.831716588821905 57.697645373177096 36.02122015209076 C 0.0 **** -0.24
36772 H 19.504109601134303 57.31317858838757 35.05464346299689 H 0.0 **** 0.06
36773 H 19.59162232779073 58.758521033131345 36.09076898721315 H 0.0 **** 0.06
36774 H 20.907945197132392 57.56044836732033 36.11958355555038 H 0.0 **** 0.06
36775 H 19.32162227023798 57.156598884876075 36.81810153888787 H 0.0 **** 0.06
36776 C 125.64725372923674 83.68190915050842 99.74171039001487 C 0.0 **** -0.24
36777 H 126.62942861979808 83.68774101905395 99.26767345410825 H 0.0 **** 0.06
36778 H 124.88642144492296 83.4476897711512 98.99606766261238 H 0.0 **** 0.06
36779 H 125.44572121585875 84.66344112636033 100.17120674345978 H 0.0 **** 0.06
36780 H 125.62902891370534 82.9292137150117 100.52901517878801 H 0.0 **** 0.06
36781 C 110.53982882911474 42.63427937351753 65.39941086866561 C 0.0 **** -0.24
36782 H 109.58494872262335 42.11322860226281 65.33255635152024 H 0.0 **** 0.06
36783 H 111.266227351608 41.99823175625792 65.9057754739722 H 0.0 **** 0.06
36784 H 110.41120934437721 43.5586273156143 65.96127499696372 H 0.0 **** 0.06
36785 H 110.89756143758149 42.865241311887786 64.39550624590983 H 0.0 **** 0.06
36786 C 8.535832742395598 95.28374752473843 32.08785548073848 C 0.0 **** -0.24
36787 H 8.861379954245422 96.05766775732286 31.393084345575232 H 0.0 **** 0.06
36788 H 9.066364019906757 95.3976413456364 33.03393809309517 H 0.0 **** 0.06
36789 H 8.751715291924484 94.30297899862424 31.665154355229646 H 0.0 **** 0.06
36790 H 7.462885891148403 95.37755219203089 32.258692449279465 H 0.0 **** 0.06
36791 C 71.9026136774305 124.2802894054555 98.45159118549664 C 0.0 **** -0.24
36792 H 71.23954976278019 124.98063218041261 97.94367021413898 H 0.0 **** 0.06
36793 H 71.47385232685524 123.2790757186018 98.41133804872054 H 0.0 **** 0.06
36794 H 72.02188849687482 124.58310893439415 99.49259522230079 H 0.0 **** 0.06
36795 H 72.8757680155701 124.27970466672332 97.96009368835227 H 0.0 **** 0.06
36796 C 40.26342539362548 98.21026884174248 45.80267481891127 C 0.0 **** -0.24
36797 H 40.80683736188993 97.83581198939088 44.9354199875288 H 0.0 **** 0.06
36798 H 40.89612063659101 98.90622781339853 46.354553765940324 H 0.0 **** 0.06
36799 H 39.990601789973894 97.37608693693453 46.44848923464218 H 0.0 **** 0.06
36800 H 39.36118061106163 98.72423707617438 45.471725494233226 H 0.0 **** 0.06
36801 C 120.66382499452126 17.39770748778058 58.63811790375105 C 0.0 **** -0.24
36802 H 121.34626039868556 16.751686301742232 58.084624372171135 H 0.0 **** 0.06
36803 H 120.83334625471161 17.27308452049172 59.70739060077614 H 0.0 **** 0.06
36804 H 119.63507963096433 17.128371031781988 58.39890812374533 H 0.0 **** 0.06
36805 H 120.84165505164441 18.436298773289693 58.36013939349144 H 0.0 **** 0.06
36806 C 79.59594852534586 22.70932513696492 26.438880396777307 C 0.0 **** -0.24
36807 H 79.29963642044753 21.66594605957684 26.333018781671825 H 0.0 **** 0.06
36808 H 79.59894842174529 22.980376740132044 27.49490668926032 H 0.0 **** 0.06
36809 H 78.89009054837098 23.34335520103889 25.901968964344377 H 0.0 **** 0.06
36810 H 80.59507942729428 22.847344827244285 26.024667264115664 H 0.0 **** 0.06
36811 C 116.30053672588974 11.051217484485733 47.512115911011875 C 0.0 **** -0.24
36812 H 116.57667193360572 11.689526640010087 48.35095570269257 H 0.0 **** 0.06
36813 H 116.41321845329418 11.606845910592796 46.580345319734704 H 0.0 **** 0.06
36814 H 115.26320224496544 10.733952276928989 47.623104580607475 H 0.0 **** 0.06
36815 H 116.9486596528763 10.174536769782804 47.4931392035013 H 0.0 **** 0.06
36816 C 82.86610378016935 76.91413128430666 95.4627629102132 C 0.0 **** -0.24
36817 H 82.90012532038025 77.0961032612207 96.53763513008715 H 0.0 **** 0.06
36818 H 82.39211949764699 77.76171866591152 94.96683645315892 H 0.0 **** 0.06
36819 H 82.29110306311249 76.00940568579747 95.26609765839056 H 0.0 **** 0.06
36820 H 83.8800865098447 76.7902876369242 95.0824968921922 H 0.0 **** 0.06
36821 C 79.2215267835198 79.48848161486126 51.88369811805504 C 0.0 **** -0.24
36822 H 78.58428742670375 78.6110080704731 51.773504403107125 H 0.0 **** 0.06
36823 H 80.26755033270078 79.18586378367884 51.8360993029369 H 0.0 **** 0.06
36824 H 79.0224241549557 79.96316959445184 52.84406153276842 H 0.0 **** 0.06
36825 H 79.00959422582696 80.19355143329157 51.0789312570858 H 0.0 **** 0.06
36826 C 16.47017601325831 102.69303371068803 33.02226963995997 C 0.0 **** -0.24
36827 H 16.580926375631805 101.65208181216498 33.32331096710397 H 0.0 **** 0.06
36828 H 15.890286608939562 103.22865734592035 33.77420055143923 H 0.0 **** 0.06
36829 H 15.953563443344393 102.74074145787723 32.06321649211441 H 0.0 **** 0.06
36830 H 17.454868744966802 103.15123105987567 32.92710708456088 H 0.0 **** 0.06
36831 C 36.34771139300619 27.55222870649891 76.78915070209709 C 0.0 **** -0.24
36832 H 36.055867699989335 27.3612838012088 77.82153809813485 H 0.0 **** 0.06
36833 H 37.42854114147332 27.45279037354544 76.69250959147837 H 0.0 **** 0.06
36834 H 36.04921393328556 28.56311650740821 76.5090031211796 H 0.0 **** 0.06
36835 H 35.85604992956792 26.833625543638504 76.13364864056354 H 0.0 **** 0.06
36836 C 28.481953779628867 123.29329699068786 11.373183303164183 C 0.0 **** -0.24
36837 H 28.385122285361376 123.09009831565967 10.307150764603023 H 0.0 **** 0.06
36838 H 28.229628176299684 124.33650519398971 11.568485672760517 H 0.0 **** 0.06
36839 H 29.508185746643022 123.10277366579875 11.687915419195633 H 0.0 **** 0.06
36840 H 27.80548239055851 122.64478766557797 11.930006966299231 H 0.0 **** 0.06
36841 C 99.89925937258013 24.461324588346045 78.886183301363 C 0.0 **** -0.24
36842 H 99.12661852245276 24.56246921942818 78.12399149342028 H 0.0 **** 0.06
36843 H 100.0142184700398 25.40854432371045 79.41363346850987 H 0.0 **** 0.06
36844 H 100.84312430244219 24.191516274367252 78.41255693831623 H 0.0 **** 0.06
36845 H 99.61137998170472 23.68373903048024 79.59346443855277 H 0.0 **** 0.06
36846 C 59.04493499001474 122.93598859209406 86.40844392895764 C 0.0 **** -0.24
36847 H 58.2252735869736 122.72110803203974 85.72214803775029 H 0.0 **** 0.06
36848 H 59.99550448868766 122.7378552360085 85.91329317810403 H 0.0 **** 0.06
36849 H 58.955773106405076 122.30355929698733 87.29111643601104 H 0.0 **** 0.06
36850 H 59.001614925554804 123.98417228854466 86.70733334121323 H 0.0 **** 0.06
36851 C 108.20710954644387 18.54713186414159 95.17910816065475 C 0.0 **** -0.24
36852 H 107.36830218356833 18.23289742499719 95.79884544411127 H 0.0 **** 0.06
36853 H 108.71443585221647 17.66736893159964 94.78178998283983 H 0.0 **** 0.06
36854 H 108.90454824527266 19.12921169604533 95.7806310134296 H 0.0 **** 0.06
36855 H 107.84043594021952 19.159276807138042 94.35450609727368 H 0.0 **** 0.06
36856 C 92.77637655530279 46.458988154141764 98.92989561170305 C 0.0 **** -0.24
36857 H 92.72690439128179 46.79300706331364 99.96641254773223 H 0.0 **** 0.06
36858 H 91.90771735231823 46.83249835904087 98.38735454979826 H 0.0 **** 0.06
36859 H 92.78403770398822 45.3698928168547 98.89916991521754 H 0.0 **** 0.06
36860 H 93.6862422851025 46.8425139953591 98.46883518164344 H 0.0 **** 0.06
36861 C 22.036869749067748 42.91523882300979 50.95159398067352 C 0.0 **** -0.24
36862 H 21.83213282201978 42.57983461575266 49.93516530798475 H 0.0 **** 0.06
36863 H 22.946129100432138 42.438007637774234 51.31596638747652 H 0.0 **** 0.06
36864 H 21.201228529375243 42.6472965450759 51.59701328340461 H 0.0 **** 0.06
36865 H 22.167393269154793 43.9974697515739 50.95652427439428 H 0.0 **** 0.06
36866 C 55.01745689937708 63.18855804564234 16.48175690201805 C 0.0 **** -0.24
36867 H 55.06298171142677 63.05669576388007 15.400187503352754 H 0.0 **** 0.06
36868 H 53.98950303674823 63.398165347412686 16.77826344411767 H 0.0 **** 0.06
36869 H 55.65721929082328 64.02129794275598 16.773010720348736 H 0.0 **** 0.06
36870 H 55.35926981099814 62.277910647405236 16.972525335943715 H 0.0 **** 0.06
36871 C 94.89746281718982 31.7220740589975 120.17661578855814 C 0.0 **** -0.24
36872 H 95.74848431479543 31.690948195866525 120.85757401496767 H 0.0 **** 0.06
36873 H 93.9719032482621 31.736681396605405 120.75317337135823 H 0.0 **** 0.06
36874 H 94.91307339421544 30.84096655488682 119.53617666543425 H 0.0 **** 0.06
36875 H 94.95782790155121 32.62032165961699 119.56262903057905 H 0.0 **** 0.06
36876 C 28.532540806525674 0.5889943640867159 110.72468659211927 C 0.0 **** -0.24
36877 H 27.97383309097512 1.5243576630942357 110.7016078461719 H 0.0 **** 0.06
36878 H 29.513749771556775 0.7403038517905429 110.27498684346182 H 0.0 **** 0.06
36879 H 27.989272620612127 -0.1713962855675959 110.16350817458755 H 0.0 **** 0.06
36880 H 28.65255482244615 0.26210657775754953 111.75761083220738 H 0.0 **** 0.06
36881 C 125.23605816532483 81.285270472036 69.62817439617477 C 0.0 **** -0.24
36882 H 124.46173733346643 81.74382752819425 70.24416563947942 H 0.0 **** 0.06
36883 H 124.81732606663066 81.01846422632636 68.65722671927884 H 0.0 **** 0.06
36884 H 125.60771249576263 80.38741188543057 70.12233885022401 H 0.0 **** 0.06
36885 H 126.05595822067639 81.99008984621024 69.49041369034038 H 0.0 **** 0.06
36886 C 91.55163929419442 116.30114902152185 110.84704200278458 C 0.0 **** -0.24
36887 H 90.53281876524169 115.94299640871861 110.99877522888022 H 0.0 **** 0.06
36888 H 92.13602195431065 115.52987270988754 110.3441679711828 H 0.0 **** 0.06
36889 H 92.00398549277058 116.52976571199218 111.81180817661613 H 0.0 **** 0.06
36890 H 91.53158908353443 117.20079576323344 110.23198330912274 H 0.0 **** 0.06
36891 C 18.09914002389246 40.22649756304372 39.55499423978765 C 0.0 **** -0.24
36892 H 18.81287439841776 39.51942538917791 39.13112196490177 H 0.0 **** 0.06
36893 H 18.542480629501284 40.71370723954931 40.42367619093347 H 0.0 **** 0.06
36894 H 17.19674183787552 39.69448221481929 39.85708475902861 H 0.0 **** 0.06
36895 H 17.844346482015 40.9775399551724 38.806280591425526 H 0.0 **** 0.06
36896 C 94.02798135762589 4.821542872613321 7.21623900024116 C 0.0 **** -0.24
36897 H 93.75977123707327 3.8118810727202117 6.904699487572941 H 0.0 **** 0.06
36898 H 93.30342741767248 5.529972871498273 6.815603314218436 H 0.0 **** 0.06
36899 H 95.02186892361573 5.06467953151477 6.839733258607907 H 0.0 **** 0.06
36900 H 94.02766624951659 4.877337257643319 8.304688972483746 H 0.0 **** 0.06
36901 C 17.976101302336374 130.2290376455491 26.315741607342765 C 0.0 **** -0.24
36902 H 17.397340574947876 130.6706085162309 27.12762935367595 H 0.0 **** 0.06
36903 H 17.310918130740696 129.67136993430955 25.656849724230305 H 0.0 **** 0.06
36904 H 18.72604280228846 129.55573839710706 26.73004016918508 H 0.0 **** 0.06
36905 H 18.470238061477623 131.01923713125143 25.751155862529075 H 0.0 **** 0.06
36906 C 31.959013801925103 18.76613524067605 127.22916905120954 C 0.0 **** -0.24
36907 H 31.136978367701182 19.020537743765942 127.89729442202557 H 0.0 **** 0.06
36908 H 31.59388624942102 18.11091898043037 126.43803125282707 H 0.0 **** 0.06
36909 H 32.740542967535184 18.256828150035346 127.79245484468086 H 0.0 **** 0.06
36910 H 32.36284943653477 19.677215987464592 126.78797622951274 H 0.0 **** 0.06
36911 C 123.46527359161138 8.603793006794689 116.98684904695557 C 0.0 **** -0.24
36912 H 123.41617375661707 9.058189338011879 117.97683778338586 H 0.0 **** 0.06
36913 H 124.20427248134348 7.802813868019321 116.9907870023342 H 0.0 **** 0.06
36914 H 123.75153962302036 9.359574019921087 116.25508657279121 H 0.0 **** 0.06
36915 H 122.48872403547497 8.197420946241007 116.7256152005946 H 0.0 **** 0.06
36916 C 53.77600953408002 13.26732742429445 62.91976845897264 C 0.0 **** -0.24
36917 H 54.47050004130578 12.430673947326056 62.84641083304248 H 0.0 **** 0.06
36918 H 52.756394853090924 12.88676092571427 62.995025514158456 H 0.0 **** 0.06
36919 H 53.8654324638338 13.89362053067444 62.03195712003584 H 0.0 **** 0.06
36920 H 54.009427928691366 13.857366325534628 63.8057015176411 H 0.0 **** 0.06
36921 C 55.344773263201404 10.397315681689093 65.19713658108196 C 0.0 **** -0.24
36922 H 54.32462649094448 10.773120795225807 65.27763233540685 H 0.0 **** 0.06
36923 H 55.32706137821356 9.307464341702499 65.15411428053251 H 0.0 **** 0.06
36924 H 55.91984858660442 10.718227664928037 66.06555141652544 H 0.0 **** 0.06
36925 H 55.805685563122125 10.789438573990907 64.29055787086756 H 0.0 **** 0.06
36926 C 3.6938336080064147 37.24142118755165 70.36106165474874 C 0.0 **** -0.24
36927 H 3.665829333823055 38.24453899762566 69.93440612248222 H 0.0 **** 0.06
36928 H 3.9876042869946104 37.30066272642076 71.4098036562048 H 0.0 **** 0.06
36929 H 4.415832710768285 36.6344744733893 69.81467950193615 H 0.0 **** 0.06
36930 H 2.705822559996932 36.786690744679134 70.28466858584667 H 0.0 **** 0.06
36931 C 98.18981139872008 74.52477785707107 123.83766832444093 C 0.0 **** -0.24
36932 H 97.41203715817247 75.28844954178622 123.8609339648619 H 0.0 **** 0.06
36933 H 98.82213353846083 74.67721710416414 122.96252347673368 H 0.0 **** 0.06
36934 H 97.7289605806462 73.53811635360809 123.7856769996629 H 0.0 **** 0.06
36935 H 98.79540854164469 74.59579781130924 124.74040674688632 H 0.0 **** 0.06
36936 C 21.949813164797945 55.55180302998974 38.00417628672969 C 0.0 **** -0.24
36937 H 20.941085357699194 55.37169083913983 38.37634197649277 H 0.0 **** 0.06
36938 H 21.950643740236558 55.50334168762424 36.91574474628902 H 0.0 **** 0.06
36939 H 22.62399616733768 54.79295113160799 38.402086551906365 H 0.0 **** 0.06
36940 H 22.283916784693645 56.53886492161382 38.326235518650094 H 0.0 **** 0.06
36941 C 22.56488038524016 31.275780753372004 58.98326066710018 C 0.0 **** -0.24
36942 H 23.496473483374103 30.888807849430407 59.3952639428893 H 0.0 **** 0.06
36943 H 21.90918705495133 30.444036909072366 58.72313382075458 H 0.0 **** 0.06
36944 H 22.77885261126545 31.862494729630754 58.08952071354287 H 0.0 **** 0.06
36945 H 22.07497195054671 31.907674455229312 59.72413079717154 H 0.0 **** 0.06
36946 C 88.18105156916737 97.38273023726711 85.7371399631509 C 0.0 **** -0.24
36947 H 88.52014901704474 98.41580729285766 85.66165368458917 H 0.0 **** 0.06
36948 H 88.3443018458213 96.87709346654114 84.78516711734414 H 0.0 **** 0.06
36949 H 87.11764867265607 97.36674553161205 85.9787663580875 H 0.0 **** 0.06
36950 H 88.73992266509309 96.87269708829879 86.52118186498355 H 0.0 **** 0.06
36951 C 63.91021496522464 30.217290503348487 74.07383947091911 C 0.0 **** -0.24
36952 H 63.351187819321126 30.56214842956647 74.94256383435521 H 0.0 **** 0.06
36953 H 64.1326767188821 31.06454834219045 73.42457416623988 H 0.0 **** 0.06
36954 H 63.31556772175773 29.486024076572136 73.52544217505064 H 0.0 **** 0.06
36955 H 64.84218245742622 29.75510455631894 74.40020007883197 H 0.0 **** 0.06
36956 C 111.93380114714269 52.95777221963675 111.28520046280178 C 0.0 **** -0.24
36957 H 111.22444759996914 52.26515635868144 110.83266730314904 H 0.0 **** 0.06
36958 H 111.99031665734472 52.771076667505085 112.3576058141366 H 0.0 **** 0.06
36959 H 111.6034947325287 53.98142133286537 111.11110397088947 H 0.0 **** 0.06
36960 H 112.9179733230565 52.81288014776358 110.83862691180056 H 0.0 **** 0.06
36961 C 65.79977895667027 58.22308462139745 121.59281970578604 C 0.0 **** -0.24
36962 H 66.56265208595708 58.11818798203882 120.82182507892189 H 0.0 **** 0.06
36963 H 65.7893116253488 59.252027729599035 121.9552284537229 H 0.0 **** 0.06
36964 H 66.02395049167284 57.54939905081176 122.419376600207 H 0.0 **** 0.06
36965 H 64.82484043474456 57.97451683267326 121.17516395568238 H 0.0 **** 0.06
36966 C 34.881598217029364 30.088415777860206 70.74501082939071 C 0.0 **** -0.24
36967 H 35.50389028998927 30.69797551400302 71.39948307483462 H 0.0 **** 0.06
36968 H 34.86656484938169 30.52531351473968 69.74647297855608 H 0.0 **** 0.06
36969 H 33.86647094008089 30.050479993395385 71.14086053120832 H 0.0 **** 0.06
36970 H 35.28914968596871 29.078197503378362 70.69464846494543 H 0.0 **** 0.06
36971 C 85.20888287644186 32.577457408347556 94.82136704766374 C 0.0 **** -0.24
36972 H 85.83439759753111 33.402134963705606 95.16203946337603 H 0.0 **** 0.06
36973 H 85.79497003489655 31.918108524989663 94.17972114403568 H 0.0 **** 0.06
36974 H 84.36223831403868 32.97181867130334 94.26032552286945 H 0.0 **** 0.06
36975 H 84.84522166519804 32.01708848279689 95.68245510345831 H 0.0 **** 0.06
36976 C 96.42751118833637 59.329923247121684 79.4324352406837 C 0.0 **** -0.24
36977 H 97.28113963437659 59.51031728184245 78.7788360091119 H 0.0 **** 0.06
36978 H 96.62119591865451 59.76723318887747 80.41216108932299 H 0.0 **** 0.06
36979 H 96.27161148184076 58.25641973625994 79.53740639237743 H 0.0 **** 0.06
36980 H 95.53723891195311 59.78644531608916 78.99929395610052 H 0.0 **** 0.06
36981 C 83.39877235259239 51.47955249796284 44.059817736562024 C 0.0 **** -0.24
36982 H 82.78503032313691 52.25769417804672 43.60529628031474 H 0.0 **** 0.06
36983 H 84.35918309257127 51.42934219286994 43.54650630866684 H 0.0 **** 0.06
36984 H 82.88933168258855 50.52014970813701 43.97526061943402 H 0.0 **** 0.06
36985 H 83.56007041803386 51.713435637058524 45.112315765810564 H 0.0 **** 0.06
36986 C 119.99680859736395 103.89383220561683 85.79649082918613 C 0.0 **** -0.24
36987 H 119.15675065628868 104.5297938456328 85.51866557011292 H 0.0 **** 0.06
36988 H 120.9315174041837 104.42419792858234 85.61182039239932 H 0.0 **** 0.06
36989 H 119.97323406230933 102.98122862349123 85.20040824502806 H 0.0 **** 0.06
36990 H 119.9257572622843 103.63890198243604 86.85382651515022 H 0.0 **** 0.06
36991 C 35.41264426216361 45.12150938519697 123.52517117256859 C 0.0 **** -0.24
36992 H 34.85875624507223 46.060127528474894 123.52587697909186 H 0.0 **** 0.06
36993 H 35.06207986670901 44.4942613360425 122.7060717207574 H 0.0 **** 0.06
36994 H 35.254543096481 44.6054414073473 124.47197860520747 H 0.0 **** 0.06
36995 H 36.47509673879638 45.32774212823534 123.39596104784745 H 0.0 **** 0.06
36996 C 55.38333499969235 59.052954927330944 72.86542326538044 C 0.0 **** -0.24
36997 H 55.14547139117586 58.11052882347482 73.35928502999076 H 0.0 **** 0.06
36998 H 55.23064752170788 59.87691499779689 73.5634496847921 H 0.0 **** 0.06
36999 H 54.734789997069655 59.18346878253277 72.00026670553089 H 0.0 **** 0.06
37000 H 56.42443933253462 59.03970566037495 72.54208640745442 H 0.0 **** 0.06
37001 C 114.07484235037587 97.25770205055764 2.213865451671012 C 0.0 **** -0.24
37002 H 113.77523196761491 96.4373596219703 1.5606844207429447 H 0.0 **** 0.06
37003 H 114.75590901295358 96.88225039035572 2.978565264916327 H 0.0 **** 0.06
37004 H 113.19200361863913 97.68304152262797 2.6899689223497774 H 0.0 **** 0.06
37005 H 114.57701931520022 98.02601177710207 1.6253665396309032 H 0.0 **** 0.06
37006 C 47.56591313972474 90.11565527403897 130.1960246527798 C 0.0 **** -0.24
37007 H 47.06671063489735 89.910929633012 129.24919166164992 H 0.0 **** 0.06
37008 H 48.61699916111357 90.34024208140093 130.01126945973962 H 0.0 **** 0.06
37009 H 47.489973941478425 89.24174735857085 130.84359140879675 H 0.0 **** 0.06
37010 H 47.09079055602794 90.96913211558028 130.68004975564062 H 0.0 **** 0.06
37011 C 61.70801336318512 80.84906694532461 103.06424465610709 C 0.0 **** -0.24
37012 H 62.246270432261255 80.71345904432256 102.12591138849146 H 0.0 **** 0.06
37013 H 61.81686185863667 79.95494947664201 103.67754913972277 H 0.0 **** 0.06
37014 H 60.651726128945086 81.01934612939948 102.85396199946655 H 0.0 **** 0.06
37015 H 62.1158431382531 81.70743179034584 103.59710587493205 H 0.0 **** 0.06
37016 C 122.59833320192888 31.73001575321922 85.80814533226027 C 0.0 **** -0.24
37017 H 122.70705649298054 32.78910832169086 86.0423176193089 H 0.0 **** 0.06
37018 H 121.57055473188444 31.52959961280044 85.50372240857581 H 0.0 **** 0.06
37019 H 122.83824162465257 31.136361371967837 86.69038957682602 H 0.0 **** 0.06
37020 H 123.27546752499173 31.46584499348424 84.99662680607838 H 0.0 **** 0.06
37021 C 122.84988743505284 62.940982799633275 9.600202452025403 C 0.0 **** -0.24
37022 H 121.99963111456083 62.29762988753963 9.375810744092696 H 0.0 **** 0.06
37023 H 122.59923122108435 63.59796762055596 10.433277417302858 H 0.0 **** 0.06
37024 H 123.09154026850359 63.54247846650195 8.72263566576606 H 0.0 **** 0.06
37025 H 123.70957047823545 62.32633238237136 9.866942763504102 H 0.0 **** 0.06
37026 C 0.3722433966226415 125.58601699030658 25.643690111108015 C 0.0 **** -0.24
37027 H 1.0027783543561455 125.9847534153812 26.438115297146055 H 0.0 **** 0.06
37028 H -0.32134185014683325 126.35804108373146 25.308058072452923 H 0.0 **** 0.06
37029 H -0.1901052317549503 124.7312589760649 26.021214014857605 H 0.0 **** 0.06
37030 H 0.996742061341596 125.26898913422733 24.80774496134285 H 0.0 **** 0.06
37031 C 3.5364236352834553 128.8477677634727 24.686557816469303 C 0.0 **** -0.24
37032 H 3.4359660437445143 129.49805084352644 25.55557603293309 H 0.0 **** 0.06
37033 H 4.432957480820534 129.12040988773367 24.130682156183468 H 0.0 **** 0.06
37034 H 2.662269950511501 128.96203954742316 24.04476515502776 H 0.0 **** 0.06
37035 H 3.613409435502035 127.81146618503833 25.015289749994594 H 0.0 **** 0.06
37036 C 69.70717011094136 2.345911523504814 126.45966143500101 C 0.0 **** -0.24
37037 H 69.21833848905756 2.400421847885543 125.48740596979928 H 0.0 **** 0.06
37038 H 70.40872582309127 1.5107804293980571 126.46688612327813 H 0.0 **** 0.06
37039 H 68.95676139422757 2.1973544310544852 127.23612071666315 H 0.0 **** 0.06
37040 H 70.24606956685031 3.2747083162460484 126.64761722955467 H 0.0 **** 0.06
37041 C 11.997649550136146 67.02537510555244 50.153225917730595 C 0.0 **** -0.24
37042 H 12.58819048993891 66.3504758032642 49.534167952820056 H 0.0 **** 0.06
37043 H 12.537954714455168 67.23857477414252 51.07652586848785 H 0.0 **** 0.06
37044 H 11.041652914388294 66.55778464781929 50.39086033949364 H 0.0 **** 0.06
37045 H 11.821958003059876 67.95498924036784 49.61091828478138 H 0.0 **** 0.06
37046 C 103.73735467607995 113.21376260742446 100.9744799514375 C 0.0 **** -0.24
37047 H 103.54648152988766 114.13432915531806 101.52571050374769 H 0.0 **** 0.06
37048 H 102.88465505788989 112.99218543746471 100.33186852395619 H 0.0 **** 0.06
37049 H 103.88707548929898 112.39414541512664 101.67629098647478 H 0.0 **** 0.06
37050 H 104.63129070907948 113.33572093716535 100.36199479892639 H 0.0 **** 0.06
37051 C 27.555681631228424 96.01619168033054 117.62453556942256 C 0.0 **** -0.24
37052 H 26.6765161223949 95.38129980500325 117.74105538730552 H 0.0 **** 0.06
37053 H 27.300315375708408 96.8799456371944 117.01179045851973 H 0.0 **** 0.06
37054 H 28.351139135020844 95.44843345000288 117.1404513866506 H 0.0 **** 0.06
37055 H 27.89354721131309 96.35154669010106 118.6048305803474 H 0.0 **** 0.06
37056 C 89.05114186520036 98.64065148695892 58.29228447307847 C 0.0 **** -0.24
37057 H 89.09614677647484 97.82930270928645 57.564734973297476 H 0.0 **** 0.06
37058 H 88.6015202605021 98.2757458109381 59.21603160246676 H 0.0 **** 0.06
37059 H 88.44726287106663 99.45400660109456 57.890601689827946 H 0.0 **** 0.06
37060 H 90.0583848202503 99.00201226625822 58.495519294048705 H 0.0 **** 0.06
37061 C 18.978555402719344 41.896701060691015 5.702101400100119 C 0.0 **** -0.24
37062 H 18.193260182149203 42.175716241984105 6.405165732811852 H 0.0 **** 0.06
37063 H 18.863582011308885 40.848543096624326 5.426891584032546 H 0.0 **** 0.06
37064 H 19.952769049428667 42.04639857473673 6.1683963077959305 H 0.0 **** 0.06
37065 H 18.90443348556314 42.517401424576796 4.8091324911557365 H 0.0 **** 0.06
37066 C 44.07236132902723 107.44436020095236 62.54879420056524 C 0.0 **** -0.24
37067 H 44.9427711719313 107.81845877405078 63.08840931221326 H 0.0 **** 0.06
37068 H 43.179202799096686 107.96502220674563 62.89601381032415 H 0.0 **** 0.06
37069 H 43.963469165632915 106.37541765947867 62.73154210802275 H 0.0 **** 0.06
37070 H 44.20302762381493 107.6199602014367 61.480955058299756 H 0.0 **** 0.06
37071 C 27.31526611924943 97.77459478024782 13.586588626825119 C 0.0 **** -0.24
37072 H 27.17973374738989 97.91135291837858 14.660054383198258 H 0.0 **** 0.06
37073 H 26.40633477678162 97.35372365774258 13.157120628233372 H 0.0 **** 0.06
37074 H 28.14976988289709 97.0970973130251 13.409755259385292 H 0.0 **** 0.06
37075 H 27.524680562108358 98.73815569993278 13.122050776202855 H 0.0 **** 0.06
37076 C 122.7331229657332 68.27574292215593 122.0409205841994 C 0.0 **** -0.24
37077 H 122.55402833813066 67.20030808339394 122.08211058665364 H 0.0 **** 0.06
37078 H 123.68585430736417 68.46640212368558 121.54615137465726 H 0.0 **** 0.06
37079 H 122.76046168373902 68.6778479843554 123.0533234405496 H 0.0 **** 0.06
37080 H 121.9302319951548 68.75564670534666 121.48046097702951 H 0.0 **** 0.06
37081 C 126.87320310671447 52.114456175764644 49.97679524393607 C 0.0 **** -0.24
37082 H 127.0027366020478 53.192017052752476 50.078560214012725 H 0.0 **** 0.06
37083 H 127.01401868366666 51.82896746081576 48.93397086923646 H 0.0 **** 0.06
37084 H 125.86939050229284 51.837469377004254 50.29735098488963 H 0.0 **** 0.06
37085 H 127.60825239504673 51.600350230894435 50.59606343335918 H 0.0 **** 0.06
37086 C 5.605582753624589 62.05332903365441 32.139905216236684 C 0.0 **** -0.24
37087 H 6.067606664205968 61.23444577925419 31.589463093084476 H 0.0 **** 0.06
37088 H 6.029830758369812 63.00043600380043 31.805633586214412 H 0.0 **** 0.06
37089 H 5.7937972574118675 61.926894233031845 33.20592303725755 H 0.0 **** 0.06
37090 H 4.531096334510565 62.051540118531264 31.958601148390187 H 0.0 **** 0.06
37091 C 113.09727707830358 72.83762084532168 29.154433510938702 C 0.0 **** -0.24
37092 H 112.56901672738262 73.65298512915848 28.66069721409771 H 0.0 **** 0.06
37093 H 114.16247275760811 73.06846475353962 29.197732699873427 H 0.0 **** 0.06
37094 H 112.94791115217798 71.91527204116915 28.591867912620955 H 0.0 **** 0.06
37095 H 112.71143988170421 72.71282604419184 30.165978547328407 H 0.0 **** 0.06
37096 C 46.15089297785048 36.26103788999785 30.784998014568117 C 0.0 **** -0.24
37097 H 46.505307428998236 37.24586065020958 30.479879964801057 H 0.0 **** 0.06
37098 H 45.72599829028826 36.322079457146 31.787031404271858 H 0.0 **** 0.06
37099 H 46.985176375277 35.55868492515236 30.785250593825054 H 0.0 **** 0.06
37100 H 45.38778989486538 35.917718032522885 30.08571503123298 H 0.0 **** 0.06
37101 C 55.26564252022284 15.010157628279586 6.59096865224916 C 0.0 **** -0.24
37102 H 54.54594747499887 15.437993826577582 5.893883554505749 H 0.0 **** 0.06
37103 H 55.31867356036341 15.631302730820636 7.485585882551334 H 0.0 **** 0.06
37104 H 56.246702157028 14.966752876925653 6.1188559128681845 H 0.0 **** 0.06
37105 H 54.94967572365667 14.003706869466129 6.866878724688831 H 0.0 **** 0.06
37106 C 28.40853714477248 62.12992726377587 130.3881085491851 C 0.0 **** -0.24
37107 H 27.575152911287887 61.900583140745795 129.72464007337197 H 0.0 **** 0.06
37108 H 28.094188300878756 62.86966448297292 131.1235091542436 H 0.0 **** 0.06
37109 H 29.238797814204048 62.528150946752675 129.80370657825904 H 0.0 **** 0.06
37110 H 28.726568863943214 61.22050820665939 130.89856747049066 H 0.0 **** 0.06
37111 C 97.32866027789943 45.14922583675188 63.367661033545104 C 0.0 **** -0.24
37112 H 98.33765875673434 45.49238159386434 63.13870323332671 H 0.0 **** 0.06
37113 H 96.62380899785016 45.60793121201917 62.6734178609166 H 0.0 **** 0.06
37114 H 97.07126810897476 45.43172211322553 64.38814207577185 H 0.0 **** 0.06
37115 H 97.28321313309311 44.0648199645229 63.26768141021596 H 0.0 **** 0.06
37116 C 12.144847578238341 42.9891026583048 10.034644148202876 C 0.0 **** -0.24
37117 H 12.430114990665459 42.66072854691757 11.034070190300532 H 0.0 **** 0.06
37118 H 11.952398732136203 44.062864890634756 10.04620673664147 H 0.0 **** 0.06
37119 H 11.244498738667517 42.461738005378464 9.721821713766616 H 0.0 **** 0.06
37120 H 12.953037519529175 42.77232634723242 9.336380230424037 H 0.0 **** 0.06
37121 C 0.16486488422112267 46.31702426004324 96.96773610229093 C 0.0 **** -0.24
37122 H 0.6986722295905068 46.40040883667319 97.91430791087964 H 0.0 **** 0.06
37123 H 0.7189422856664933 46.84412681393172 96.19094037056794 H 0.0 **** 0.06
37124 H -0.8266737691321175 46.759510889772514 97.07073722944105 H 0.0 **** 0.06
37125 H 0.06788809421501263 45.266211923970786 96.69667088980435 H 0.0 **** 0.06
37126 C 77.54707289801712 110.56356048995231 99.01163320830597 C 0.0 **** -0.24
37127 H 76.97529433305377 110.46010321323753 98.08913043618287 H 0.0 **** 0.06
37128 H 76.86227454245024 110.70260490810904 99.84849243203809 H 0.0 **** 0.06
37129 H 78.20765027473131 111.4277530714478 98.93501575097446 H 0.0 **** 0.06
37130 H 78.1410920829585 109.66477659229025 99.17359961176402 H 0.0 **** 0.06
37131 C 99.4949721005271 12.832244672882894 64.86748624261688 C 0.0 **** -0.24
37132 H 98.9358323696492 11.971979705373144 65.23516056058347 H 0.0 **** 0.06
37133 H 99.81222556299426 12.647637401423594 63.841174953444124 H 0.0 **** 0.06
37134 H 100.37092221315208 12.991005454211063 65.49644163277827 H 0.0 **** 0.06
37135 H 98.86053398606128 13.717783342705957 64.89875905077997 H 0.0 **** 0.06
37136 C 32.671033920257166 73.86938501785728 71.02120644832382 C 0.0 **** -0.24
37137 H 32.31095414569171 72.94269857577981 70.57372539398295 H 0.0 **** 0.06
37138 H 32.18249140333264 74.71770945954717 70.5421194974976 H 0.0 **** 0.06
37139 H 33.750056320473135 73.94389384362228 70.88274845749669 H 0.0 **** 0.06
37140 H 32.44027194883619 73.87027107014445 72.08648885020858 H 0.0 **** 0.06
37141 C 60.546755189056 126.53075040100626 81.6934782119485 C 0.0 **** -0.24
37142 H 59.544143263312336 126.11656197613989 81.59021782285691 H 0.0 **** 0.06
37143 H 60.93601631610291 126.78836429424456 80.70796546022399 H 0.0 **** 0.06
37144 H 61.198318748949575 125.79196272606208 82.16092789942961 H 0.0 **** 0.06
37145 H 60.50871416069853 127.42577026221869 82.31387788855946 H 0.0 **** 0.06
37146 C 17.915519829981193 73.4411382367824 50.033151666686535 C 0.0 **** -0.24
37147 H 17.680710495853447 74.3763547421621 49.52426447927209 H 0.0 **** 0.06
37148 H 18.751339409388805 72.95428033915186 49.52959278328501 H 0.0 **** 0.06
37149 H 17.04545403151471 72.78578776457537 50.0101587455558 H 0.0 **** 0.06
37150 H 18.186855262624505 73.64898690827681 51.06832918767927 H 0.0 **** 0.06
37151 C 76.70848019391394 107.90300871152652 60.46046193547278 C 0.0 **** -0.24
37152 H 76.21370969395724 107.01910266473686 60.864991061263694 H 0.0 **** 0.06
37153 H 77.0660378669631 108.52541990512032 61.279910658654885 H 0.0 **** 0.06
37154 H 76.00093656926123 108.47009488573036 59.85487395108737 H 0.0 **** 0.06
37155 H 77.55120519841334 107.59531258484316 59.84140609832518 H 0.0 **** 0.06
37156 C 109.40518832040301 80.39702126752667 69.29978571015035 C 0.0 **** -0.24
37157 H 109.01936478412918 80.26046501421229 70.31086639569764 H 0.0 **** 0.06
37158 H 109.6148867541981 81.45309388407443 69.13068026524432 H 0.0 **** 0.06
37159 H 108.66282332773301 80.0529031594049 68.57959447142082 H 0.0 **** 0.06
37160 H 110.32284122007756 79.81974908964742 69.18060711274465 H 0.0 **** 0.06
37161 C 105.4631114317262 63.81944250863117 41.141464126323456 C 0.0 **** -0.24
37162 H 104.431427333342 63.532473152289015 40.93716043200945 H 0.0 **** 0.06
37163 H 105.9773905231933 64.01763025687697 40.20042259146862 H 0.0 **** 0.06
37164 H 105.96819615457007 63.00997935199783 41.6679764812645 H 0.0 **** 0.06
37165 H 105.47468432111545 64.71760466969272 41.757965710454584 H 0.0 **** 0.06
37166 C 56.61953025658795 72.27506190946681 5.73833026450502 C 0.0 **** -0.24
37167 H 55.94018874315422 71.66052604759784 5.14815383603095 H 0.0 **** 0.06
37168 H 56.54002695966415 73.31425660166082 5.418406656685246 H 0.0 **** 0.06
37169 H 57.64302147867198 71.92751010759312 5.593302669507015 H 0.0 **** 0.06
37170 H 56.35590931255254 72.19721766123686 6.792821472265992 H 0.0 **** 0.06
37171 C 126.41617212068473 32.16239042755623 6.73640785840297 C 0.0 **** -0.24
37172 H 125.96058212495214 31.184413339033398 6.891078572518438 H 0.0 **** 0.06
37173 H 126.85216270549199 32.511825038348945 7.67236305930615 H 0.0 **** 0.06
37174 H 125.6549228557484 32.867983314815774 6.403087105992654 H 0.0 **** 0.06
37175 H 127.19526093595263 32.083639254194594 5.978999599859691 H 0.0 **** 0.06
37176 C 47.66053017865761 121.04630363016592 18.372315451547962 C 0.0 **** -0.24
37177 H 47.99632980738542 121.54344913373325 19.282610707197257 H 0.0 **** 0.06
37178 H 46.57067751777956 121.02671290304619 18.349580392235126 H 0.0 **** 0.06
37179 H 48.04270967637851 120.02545419376933 18.35529338485272 H 0.0 **** 0.06
37180 H 48.03377019712542 121.58938649137801 17.503799251273286 H 0.0 **** 0.06
37181 C 125.3370514427669 22.624004994794973 117.40158089253188 C 0.0 **** -0.24
37182 H 126.3584030365655 22.710493022388434 117.77093323688487 H 0.0 **** 0.06
37183 H 124.65496200892375 22.51165035077952 118.24423793949362 H 0.0 **** 0.06
37184 H 125.25893368473561 21.75277878033051 116.75121332762122 H 0.0 **** 0.06
37185 H 125.07668508847382 23.520599819565497 116.8403220644845 H 0.0 **** 0.06
37186 C 34.890538464367694 62.08825053372834 118.44802104522925 C 0.0 **** -0.24
37187 H 34.24012883371648 61.508579933909544 119.1036450395801 H 0.0 **** 0.06
37188 H 35.408182131112085 62.85045159216047 119.03146951633326 H 0.0 **** 0.06
37189 H 34.290705035208816 62.56821619345605 117.67356097778205 H 0.0 **** 0.06
37190 H 35.621101006959634 61.42666775470727 117.98327699928655 H 0.0 **** 0.06
37191 C 62.873118117004424 64.4936252743761 87.70135542877041 C 0.0 **** -0.24
37192 H 62.69997384599539 63.43284561634145 87.8844922235391 H 0.0 **** 0.06
37193 H 61.97980449543235 64.93627976684492 87.26147452805337 H 0.0 **** 0.06
37194 H 63.71345984538773 64.61266344621636 87.01697308126403 H 0.0 **** 0.06
37195 H 63.099539611706675 64.99191024190127 88.64454678101262 H 0.0 **** 0.06
37196 C 50.67368108145402 68.80687963642696 18.061436146768983 C 0.0 **** -0.24
37197 H 49.78780315570347 69.39241824673685 17.819192042017278 H 0.0 **** 0.06
37198 H 50.470832868198926 68.18602548070716 18.934364676394978 H 0.0 **** 0.06
37199 H 51.505643238407714 69.47749801864815 18.277504309485806 H 0.0 **** 0.06
37200 H 50.93065009030195 68.1700119191409 17.21396991994058 H 0.0 **** 0.06
37201 C 73.35021156005665 67.84130038460734 97.72065658344707 C 0.0 **** -0.24
37202 H 73.86495416708348 68.19403138502327 96.82719291068011 H 0.0 **** 0.06
37203 H 73.49600729399955 68.55540084672509 98.53054271629057 H 0.0 **** 0.06
37204 H 73.75520168290336 66.87223162563902 98.01288463335712 H 0.0 **** 0.06
37205 H 72.28566649499298 67.74157201940483 97.51092466839395 H 0.0 **** 0.06
37206 C 84.56240692677108 6.661659867583964 92.64530232509075 C 0.0 **** -0.24
37207 H 85.03939638605269 5.683918308823593 92.71146089899226 H 0.0 **** 0.06
37208 H 83.55524819972752 6.548483884433281 92.24500752562537 H 0.0 **** 0.06
37209 H 85.14555009015572 7.307271429872628 91.9882435309741 H 0.0 **** 0.06
37210 H 84.5107242948383 7.107261485605477 93.63953804394428 H 0.0 **** 0.06
37211 C 77.53053890965833 72.55677774953176 69.11764016756433 C 0.0 **** -0.24
37212 H 76.53500301866507 72.50384321955693 68.67563252063479 H 0.0 **** 0.06
37213 H 78.11909677708051 73.31163977326051 68.59610930790524 H 0.0 **** 0.06
37214 H 78.01881383485224 71.5868704390083 69.0276744682156 H 0.0 **** 0.06
37215 H 77.4456459785735 72.8250110735043 70.17121532098366 H 0.0 **** 0.06
37216 C 58.069403909613044 16.631595832363047 79.73497560159996 C 0.0 **** -0.24
37217 H 58.77282229534865 16.945243238048434 80.50643354686187 H 0.0 **** 0.06
37218 H 57.32886950182561 15.960067747412669 80.17100125173934 H 0.0 **** 0.06
37219 H 58.60766974060007 16.113339837565892 78.9411959686716 H 0.0 **** 0.06
37220 H 57.568478818768966 17.50742164913229 79.32219517877002 H 0.0 **** 0.06
37221 C 12.594213818075957 97.00423526182959 78.6296403921634 C 0.0 **** -0.24
37222 H 13.517713750520954 96.50011866214872 78.34669209439036 H 0.0 **** 0.06
37223 H 12.231864199977792 97.59767206364124 77.78965644083875 H 0.0 **** 0.06
37224 H 12.783053083478535 97.65764204119374 79.48102206083549 H 0.0 **** 0.06
37225 H 11.844098694687148 96.26154318508259 78.90019947049494 H 0.0 **** 0.06
37226 C 60.09575432852495 43.290865050630885 123.00488719125539 C 0.0 **** -0.24
37227 H 60.04039030614804 42.893074282894986 124.01820491068439 H 0.0 **** 0.06
37228 H 59.156046726879794 43.78384175828671 122.75676014095804 H 0.0 **** 0.06
37229 H 60.27525888705995 42.47459928503835 122.3040221017187 H 0.0 **** 0.06
37230 H 60.911726615095986 44.00958169208553 122.94206214617222 H 0.0 **** 0.06
37231 C 101.99501679051974 52.89030987303505 90.66515918129538 C 0.0 **** -0.24
37232 H 101.45622953866469 53.75380099283649 91.05575855896777 H 0.0 **** 0.06
37233 H 101.36496105400589 52.00359122724814 90.74260816649725 H 0.0 **** 0.06
37234 H 102.90674533748772 52.73963163219213 91.24430740471888 H 0.0 **** 0.06
37235 H 102.25202948682484 53.064695319970326 89.62092233459288 H 0.0 **** 0.06
37236 C 88.4074883141636 5.3209307937793255 33.17344568170972 C 0.0 **** -0.24
37237 H 87.65034184398374 4.861397139533494 33.80945005277434 H 0.0 **** 0.06
37238 H 89.10916861223001 4.558381960360748 32.83572909396949 H 0.0 **** 0.06
37239 H 88.94226398263575 6.08407708374429 33.73890053840171 H 0.0 **** 0.06
37240 H 87.92527112999409 5.779957798247835 32.310436260123566 H 0.0 **** 0.06
37241 C 79.6233445781726 11.053291911184033 71.23566831346685 C 0.0 **** -0.24
37242 H 79.89673438466335 12.04295368194991 71.60328921986583 H 0.0 **** 0.06
37243 H 79.3680254862769 10.410713489396969 72.07841359804598 H 0.0 **** 0.06
37244 H 80.46451893654361 10.623449325913242 70.69188847142597 H 0.0 **** 0.06
37245 H 78.76495927351323 11.138113676605215 70.56916593949636 H 0.0 **** 0.06
37246 C 73.36619111999735 80.50219292586888 94.0538766467634 C 0.0 **** -0.24
37247 H 72.90437969381261 81.17417208174777 94.77706588550348 H 0.0 **** 0.06
37248 H 74.31193020585837 80.13406897417457 94.45155340784811 H 0.0 **** 0.06
37249 H 73.54802332153909 81.04066743783767 93.12290789829831 H 0.0 **** 0.06
37250 H 72.6992905509446 79.66185844564967 93.86205110010798 H 0.0 **** 0.06
37251 C 60.253398215585946 41.13529018601654 32.08554853970128 C 0.0 **** -0.24
37252 H 60.620598731096266 41.026766272100275 33.10626879152588 H 0.0 **** 0.06
37253 H 59.2983527522901 41.66189820848524 32.0973682404539 H 0.0 **** 0.06
37254 H 60.11968555154829 40.14978761661472 31.64050356886233 H 0.0 **** 0.06
37255 H 60.97513428731878 41.70477590846251 31.498887141370517 H 0.0 **** 0.06
37256 C 25.73254620151104 70.37081250655315 16.475441701507112 C 0.0 **** -0.24
37257 H 25.703896808327386 70.70079318388885 17.513233278428338 H 0.0 **** 0.06
37258 H 25.886329384823853 71.23138329756678 15.824119096788525 H 0.0 **** 0.06
37259 H 24.788096570343725 69.88726968323166 16.221369216411112 H 0.0 **** 0.06
37260 H 26.550460106987302 69.66278328832841 16.341315086450173 H 0.0 **** 0.06
37261 C 94.38393895442931 24.679355933196085 5.110442629920485 C 0.0 **** -0.24
37262 H 95.04897659086133 24.75235396593228 4.250298652104519 H 0.0 **** 0.06
37263 H 94.97649776952127 24.644048746895493 6.0249123955638275 H 0.0 **** 0.06
37264 H 93.7856926862804 23.77158995908284 5.03038126441928 H 0.0 **** 0.06
37265 H 93.72618633577265 25.54787389401239 5.136025570498699 H 0.0 **** 0.06
37266 C 62.888803105441525 56.03335048793821 80.48870171405193 C 0.0 **** -0.24
37267 H 62.007905944434924 56.602137443693664 80.78611229203395 H 0.0 **** 0.06
37268 H 63.36827320365387 55.61755637756545 81.37463857840558 H 0.0 **** 0.06
37269 H 63.5873728917594 56.69098195923826 79.97045792530972 H 0.0 **** 0.06
37270 H 62.59047868016353 55.22367194778718 79.82229065405143 H 0.0 **** 0.06
37271 C 107.13759318388114 98.34518145420549 36.73188213100374 C 0.0 **** -0.24
37272 H 108.16815938121792 98.70074878548392 36.72448750492515 H 0.0 **** 0.06
37273 H 106.74945173014294 98.33678525952091 35.71212121430261 H 0.0 **** 0.06
37274 H 106.52887441881111 99.00821836770967 37.34711868544812 H 0.0 **** 0.06
37275 H 107.10487499922343 97.3357454799873 37.14169671970993 H 0.0 **** 0.06
37276 C 68.42929733160275 125.11027377245358 55.77435151632761 C 0.0 **** -0.24
37277 H 67.81935804530028 125.57171081477422 54.998247562561346 H 0.0 **** 0.06
37278 H 68.12707224274652 124.07129153149565 55.90479826267472 H 0.0 **** 0.06
37279 H 68.29336758811431 125.649277235368 56.712009688136106 H 0.0 **** 0.06
37280 H 69.4786712911253 125.14936680551303 55.48210932490974 H 0.0 **** 0.06
37281 C 81.14905263140031 129.29696555329764 9.154278037958079 C 0.0 **** -0.24
37282 H 81.33483457311422 130.27223675999306 8.705288543575762 H 0.0 **** 0.06
37283 H 80.08469407361453 129.06754542079463 9.096808292054448 H 0.0 **** 0.06
37284 H 81.46138224095577 129.31277245210097 10.199089456777983 H 0.0 **** 0.06
37285 H 81.71460543443135 128.53634968071304 8.617122636805902 H 0.0 **** 0.06
37286 C 92.56004378284716 107.0571966668262 47.732239016954196 C 0.0 **** -0.24
37287 H 91.9582254907848 107.21713639848349 48.62773752822234 H 0.0 **** 0.06
37288 H 93.61114040756149 106.97529118385472 48.011636456881206 H 0.0 **** 0.06
37289 H 92.42809872807007 107.89805615284422 47.05183821036118 H 0.0 **** 0.06
37290 H 92.24166789539468 106.13814580336992 47.2407252873376 H 0.0 **** 0.06
37291 C 72.24158091092113 13.908200810006178 127.9358689450292 C 0.0 **** -0.24
37292 H 72.52147919710285 14.749614030470156 127.3009703035656 H 0.0 **** 0.06
37293 H 72.5768946885986 12.978826197450417 127.47503600986022 H 0.0 **** 0.06
37294 H 71.15801420816118 13.886208092419224 128.05342747719442 H 0.0 **** 0.06
37295 H 72.71101584239977 14.019623560017322 128.91274725274087 H 0.0 **** 0.06
37296 C 87.04659508955105 120.50904919971488 7.742812027104993 C 0.0 **** -0.24
37297 H 86.0398670911306 120.26930542015037 7.400135585022031 H 0.0 **** 0.06
37298 H 87.05658543223916 121.51303775603918 8.166966050673718 H 0.0 **** 0.06
37299 H 87.73775523352013 120.46200313787139 6.902024466279144 H 0.0 **** 0.06
37300 H 87.35180727041256 119.79025032211277 8.503640654678627 H 0.0 **** 0.06
37301 C 20.4836756604563 85.71066072598495 6.718201140135989 C 0.0 **** -0.24
37302 H 21.198795933404924 86.50580232850245 6.510679529103413 H 0.0 **** 0.06
37303 H 20.019669280498007 85.3873712163176 5.78622503612192 H 0.0 **** 0.06
37304 H 19.71556935139413 86.08163190121002 7.396493504506367 H 0.0 **** 0.06
37305 H 21.00010849490036 84.86853851343756 7.178964398629859 H 0.0 **** 0.06
37306 C 98.72081363335587 121.79821887833191 111.67423646897274 C 0.0 **** -0.24
37307 H 99.03673984332215 121.26861243560504 112.57315533574402 H 0.0 **** 0.06
37308 H 97.75271954144472 121.41558161129132 111.34923941606337 H 0.0 **** 0.06
37309 H 99.45698570453331 121.64388330344119 110.88490908380174 H 0.0 **** 0.06
37310 H 98.63743774030308 122.86264375657782 111.89062393264706 H 0.0 **** 0.06
37311 C 126.93077387267846 72.12153669913997 14.04066181662337 C 0.0 **** -0.24
37312 H 126.61678688848355 71.18083170340267 14.494447921504204 H 0.0 **** 0.06
37313 H 126.14442801666169 72.86575247462295 14.166882042235102 H 0.0 **** 0.06
37314 H 127.11957760813803 71.9668349728511 12.977910177540934 H 0.0 **** 0.06
37315 H 127.8435927854357 72.46993875897124 14.524655773146137 H 0.0 **** 0.06
37316 C 104.3375206764443 117.65443637825248 81.79204297502002 C 0.0 **** -0.24
37317 H 104.63506808838001 117.86515610244228 82.81916282903313 H 0.0 **** 0.06
37318 H 105.10083854983245 117.0423145546896 81.31210949682526 H 0.0 **** 0.06
37319 H 104.2275220648205 118.59267262595318 81.24717456537525 H 0.0 **** 0.06
37320 H 103.38818634126874 117.1197882599377 81.79169321281722 H 0.0 **** 0.06
37321 C 34.93581632022013 129.92644091378435 79.12743464852089 C 0.0 **** -0.24
37322 H 35.89662286273812 129.92616306410298 78.61303581406459 H 0.0 **** 0.06
37323 H 34.98399114950814 130.59653188687184 79.98642696819068 H 0.0 **** 0.06
37324 H 34.705446277188265 128.9161456592018 79.46715316659936 H 0.0 **** 0.06
37325 H 34.15804829532225 130.26708161809523 78.44363621030008 H 0.0 **** 0.06
37326 C 8.242632405818938 63.68312187440581 22.3283745390533 C 0.0 **** -0.24
37327 H 8.188855567687654 64.73263241589356 22.620234480512067 H 0.0 **** 0.06
37328 H 9.204837197376321 63.48655631748855 21.85534557814109 H 0.0 **** 0.06
37329 H 7.43922643574723 63.46118074135805 21.62588293299975 H 0.0 **** 0.06
37330 H 8.136512455986292 63.05503193938753 23.212586635060255 H 0.0 **** 0.06
37331 C 57.46829987489926 79.39195505841829 126.17964281604904 C 0.0 **** -0.24
37332 H 56.87435343457318 79.82493112088156 125.37410455957945 H 0.0 **** 0.06
37333 H 58.13014335872285 78.62839411541471 125.77069248889413 H 0.0 **** 0.06
37334 H 56.80424931514639 78.94048159931201 126.9173562362731 H 0.0 **** 0.06
37335 H 58.06210417081104 80.17307657279775 126.6542722540158 H 0.0 **** 0.06
37336 C 34.0268027009421 111.85511636428117 42.94523265087465 C 0.0 **** -0.24
37337 H 35.014492475783904 111.41501132293479 42.809704416492316 H 0.0 **** 0.06
37338 H 34.07386578494991 112.92360293977241 42.73404791006731 H 0.0 **** 0.06
37339 H 33.69899973903475 111.70145597733709 43.9725403358378 H 0.0 **** 0.06
37340 H 33.32182316212616 111.38072067531242 42.26321945546899 H 0.0 **** 0.06
37341 C 17.393512004706707 11.598480845407153 36.45956181357637 C 0.0 **** -0.24
37342 H 17.449913583750174 12.467754208353085 35.804528883210764 H 0.0 **** 0.06
37343 H 16.697333952379168 10.872485626305888 36.03939096655683 H 0.0 **** 0.06
37344 H 17.045565258282807 11.907784368132695 37.44526606734442 H 0.0 **** 0.06
37345 H 18.38183279935177 11.146120668632761 36.548290686550175 H 0.0 **** 0.06
37346 C 11.278492182601553 28.950224232746677 108.7314812939552 C 0.0 **** -0.24
37347 H 11.113555733311784 29.66118895311621 107.9211889591432 H 0.0 **** 0.06
37348 H 12.341254890388655 28.71514912843628 108.79628590731386 H 0.0 **** 0.06
37349 H 10.715515660051778 28.038882743025567 108.53492981769693 H 0.0 **** 0.06
37350 H 10.944946598689512 29.388009098658586 109.67183025673586 H 0.0 **** 0.06
37351 C 75.38491118388643 53.74418171451022 66.84224660842565 C 0.0 **** -0.24
37352 H 76.40356161609807 53.74773008690862 66.45359482374948 H 0.0 **** 0.06
37353 H 74.83748565122144 54.59344340470989 66.43316673044119 H 0.0 **** 0.06
37354 H 75.41178680598117 53.81848036705455 67.92958137990469 H 0.0 **** 0.06
37355 H 74.8894171590716 52.81810135008931 66.55371549430407 H 0.0 **** 0.06
37356 C 96.03944955235146 9.126997818510887 1.9001773220604434 C 0.0 **** -0.24
37357 H 95.88593102048198 9.90532103641715 2.6476112612524503 H 0.0 **** 0.06
37358 H 95.71876438584238 9.493676615135143 0.9246840123905713 H 0.0 **** 0.06
37359 H 95.45626082417847 8.24597087929422 2.1676822691412667 H 0.0 **** 0.06
37360 H 97.09669330046631 8.865016608191183 1.8617330829899856 H 0.0 **** 0.06
37361 C 100.43451259943159 11.548295495106117 113.89363364022181 C 0.0 **** -0.24
37362 H 99.49848760410528 11.75935554159554 114.41109895744115 H 0.0 **** 0.06
37363 H 100.41589069979018 12.009495390085817 112.90651899909427 H 0.0 **** 0.06
37364 H 100.55708498751281 10.470253553883708 113.78939329212916 H 0.0 **** 0.06
37365 H 101.26735132876439 11.9542330575635 114.46870309025125 H 0.0 **** 0.06
37366 C 25.154383170973006 16.599479182924256 21.39295704790169 C 0.0 **** -0.24
37367 H 25.516436513572728 15.756568960860449 21.98171269374612 H 0.0 **** 0.06
37368 H 24.16286441396926 16.886571866015828 21.743238110086097 H 0.0 **** 0.06
37369 H 25.099760424024083 16.312339926524572 20.34307426905164 H 0.0 **** 0.06
37370 H 25.83711759886856 17.44108329866009 21.504959813701532 H 0.0 **** 0.06
37371 C 122.0628467274478 66.30383140906892 91.4096317680445 C 0.0 **** -0.24
37372 H 121.98388931625621 65.22370188953627 91.53325791098706 H 0.0 **** 0.06
37373 H 123.08711910880213 66.5643043860855 91.14075921059185 H 0.0 **** 0.06
37374 H 121.7958444093852 66.79581753872657 92.34493432959778 H 0.0 **** 0.06
37375 H 121.38551502695881 66.62999673038087 90.62124078437705 H 0.0 **** 0.06
37376 C 127.42439530738099 100.01098723960783 84.57772661540858 C 0.0 **** -0.24
37377 H 126.75641348288144 99.6835211704219 85.37412456987497 H 0.0 **** 0.06
37378 H 127.93519292503069 99.14616837324749 84.15380608510657 H 0.0 **** 0.06
37379 H 128.15950149956367 100.70529423169921 84.98334724274406 H 0.0 **** 0.06
37380 H 126.8444774176281 100.50900623206581 83.8006360162752 H 0.0 **** 0.06
37381 C 22.815200484375694 40.84048295890776 93.97021044510007 C 0.0 **** -0.24
37382 H 22.569031765482997 41.06415862258888 92.93220388051242 H 0.0 **** 0.06
37383 H 22.101757660895146 41.33833517733973 94.627411337713 H 0.0 **** 0.06
37384 H 23.822108345880267 41.19557732975895 94.1895230373953 H 0.0 **** 0.06
37385 H 22.765851210017438 39.76284605569728 94.13083392981156 H 0.0 **** 0.06
37386 C 129.59383648272373 10.903141891321923 114.8970472344167 C 0.0 **** -0.24
37387 H 128.5841743330985 11.007585858287541 115.2946994576815 H 0.0 **** 0.06
37388 H 130.20034920437882 11.750670506258729 115.21780117086118 H 0.0 **** 0.06
37389 H 129.55443910391506 10.874859110524028 113.8077706654258 H 0.0 **** 0.06
37390 H 130.0361256680233 9.978570177190335 115.26831250637704 H 0.0 **** 0.06
37391 C 125.31996523445284 86.3111804677356 115.2307550570794 C 0.0 **** -0.24
37392 H 124.79260264407193 86.65677338873513 116.12050207844248 H 0.0 **** 0.06
37393 H 124.61332482043434 86.2049641075962 114.40770956896078 H 0.0 **** 0.06
37394 H 125.7864885534432 85.34775510787313 115.4367066208777 H 0.0 **** 0.06
37395 H 126.08823602450252 87.03568711146988 114.96037459448699 H 0.0 **** 0.06
37396 C 100.69279288343468 44.09741863837098 57.67043436685455 C 0.0 **** -0.24
37397 H 100.2372505533642 43.70238684529161 56.76232063758597 H 0.0 **** 0.06
37398 H 100.30217955409852 45.09601297932255 57.867467526942036 H 0.0 **** 0.06
37399 H 101.77393922981875 44.148305779266906 57.5421786229833 H 0.0 **** 0.06
37400 H 100.45598892733277 43.44218527756965 58.50945741161438 H 0.0 **** 0.06
37401 C 127.18235271943692 102.52438974908551 15.086903623814635 C 0.0 **** -0.24
37402 H 127.44820290490318 103.58068917860572 15.024953759385937 H 0.0 **** 0.06
37403 H 127.26143393070842 102.18939587533634 16.120902999907713 H 0.0 **** 0.06
37404 H 127.86061636962097 101.94302836677994 14.462219830167271 H 0.0 **** 0.06
37405 H 126.15889067544634 102.38730646820639 14.736580718398642 H 0.0 **** 0.06
37406 C 47.65473371076695 75.06822949607971 48.20864571214935 C 0.0 **** -0.24
37407 H 48.72914069236299 74.98713125627835 48.04335448062906 H 0.0 **** 0.06
37408 H 47.448128895120135 75.93006238457056 48.84364258099886 H 0.0 **** 0.06
37409 H 47.293331716252965 74.16207886831705 48.69592814281397 H 0.0 **** 0.06
37410 H 47.14808949279012 75.19168466525721 47.25134798364084 H 0.0 **** 0.06
37411 C 6.00512994595347 126.37317871256342 23.016377197220294 C 0.0 **** -0.24
37412 H 5.361406223004238 125.52554479918415 22.781541122559403 H 0.0 **** 0.06
37413 H 6.255759530376153 126.3558068992876 24.077866057437546 H 0.0 **** 0.06
37414 H 5.4852030548521356 127.3008213780577 22.779931628159034 H 0.0 **** 0.06
37415 H 6.919800641856895 126.30875222452764 22.426446477647644 H 0.0 **** 0.06
37416 C 36.09956956559725 33.73945832712869 77.81423096337663 C 0.0 **** -0.24
37417 H 36.41135012847366 33.320922513777845 78.77092166424805 H 0.0 **** 0.06
37418 H 35.07512320938585 34.104819548952435 77.8935617641041 H 0.0 **** 0.06
37419 H 36.15261046319793 32.96847897292105 77.04589513966049 H 0.0 **** 0.06
37420 H 36.75954306009518 34.564548787736584 77.54650688310498 H 0.0 **** 0.06
37421 C 56.802877279347356 30.216195838548927 115.37398466960818 C 0.0 **** -0.24
37422 H 57.30653555481638 29.249119936961506 115.39890637808324 H 0.0 **** 0.06
37423 H 57.287566123117514 30.89576032490058 116.07489001093555 H 0.0 **** 0.06
37424 H 55.75745350787095 30.08851627052354 115.65387483514209 H 0.0 **** 0.06
37425 H 56.86208813386422 30.62987418124409 114.3667985762344 H 0.0 **** 0.06
37426 C 41.549831113552656 80.46222413040533 42.51128536002446 C 0.0 **** -0.24
37427 H 41.506236818227734 79.44478033913413 42.899785211126186 H 0.0 **** 0.06
37428 H 41.41732217845434 81.169221561986 43.3307049872428 H 0.0 **** 0.06
37429 H 40.75820293768475 80.60412616307039 41.77618532429332 H 0.0 **** 0.06
37430 H 42.51800746866339 80.62919261006209 42.03961437266523 H 0.0 **** 0.06
37431 C 22.187577595270454 41.043261988816425 67.83310942620227 C 0.0 **** -0.24
37432 H 21.918749845120118 42.07008338157206 68.08202701313078 H 0.0 **** 0.06
37433 H 22.044100610425545 40.880305476775675 66.76409113707507 H 0.0 **** 0.06
37434 H 21.553998488199284 40.356107477745624 68.39402267229477 H 0.0 **** 0.06
37435 H 23.23138530489973 40.86946944312287 68.09121209625258 H 0.0 **** 0.06
37436 C 43.33354135315048 114.94074493576343 52.35641456846915 C 0.0 **** -0.24
37437 H 42.49989152991125 114.47728616728935 52.88424638533286 H 0.0 **** 0.06
37438 H 43.19015922200029 114.82886961686276 51.28131597187422 H 0.0 **** 0.06
37439 H 44.26468708519003 114.45575634830286 52.65137427664823 H 0.0 **** 0.06
37440 H 43.37974684824701 116.00016920315258 52.60842000294994 H 0.0 **** 0.06
37441 C 23.62377397847554 114.00683511582965 107.04973086444389 C 0.0 **** -0.24
37442 H 22.598553231899267 114.09404760667495 107.40866796096927 H 0.0 **** 0.06
37443 H 23.626827193535846 113.98936278471906 105.95914663848566 H 0.0 **** 0.06
37444 H 24.063509589059088 113.08435564054749 107.42971864718227 H 0.0 **** 0.06
37445 H 24.20617620005141 114.85861933586797 107.40168511191122 H 0.0 **** 0.06
37446 C 127.37049398753467 5.221091628638931 128.31487008763 C 0.0 **** -0.24
37447 H 126.4870398161712 4.5843532015272785 128.25641975295596 H 0.0 **** 0.06
37448 H 128.23200029754022 4.6211471779359385 128.60615163573053 H 0.0 **** 0.06
37449 H 127.20497360385929 6.004329080183481 129.05554048811646 H 0.0 **** 0.06
37450 H 127.55500873419626 5.675024751771332 127.34156722652997 H 0.0 **** 0.06
37451 C 110.71652862650353 8.615185049965135 115.00065321592056 C 0.0 **** -0.24
37452 H 110.16752789998844 8.163166438832434 114.17515106854741 H 0.0 **** 0.06
37453 H 110.5640583144891 9.695142017672424 114.99000854277331 H 0.0 **** 0.06
37454 H 111.77835905223253 8.396675990204585 114.89376389703791 H 0.0 **** 0.06
37455 H 110.35444364283461 8.206674790214834 115.9447746974112 H 0.0 **** 0.06
37456 C 85.55111519881783 102.10402391099889 34.80862608284548 C 0.0 **** -0.24
37457 H 85.06360753017486 103.07533403560889 34.89382819118822 H 0.0 **** 0.06
37458 H 84.99387762095773 101.47783208237867 34.11205553323663 H 0.0 **** 0.06
37459 H 85.57773099562505 101.62493102789936 35.78753471016603 H 0.0 **** 0.06
37460 H 86.56828624738026 102.239730455614 34.4421261228303 H 0.0 **** 0.06
37461 C 79.48334490433987 91.58669933773892 101.40817743329448 C 0.0 **** -0.24
37462 H 80.53182365375662 91.79627224736157 101.19608551142224 H 0.0 **** 0.06
37463 H 79.40789556279961 91.01233983150651 102.33129552064173 H 0.0 **** 0.06
37464 H 79.05312914303258 91.01497904959469 100.58629803631464 H 0.0 **** 0.06
37465 H 78.94143820076457 92.5265113952669 101.52015049276893 H 0.0 **** 0.06
37466 C 28.4949163736795 123.9346341551065 124.88565117956233 C 0.0 **** -0.24
37467 H 29.110839812793245 123.06869258247072 125.12977823545373 H 0.0 **** 0.06
37468 H 29.123257745536392 124.71790521413011 124.46166174849569 H 0.0 **** 0.06
37469 H 28.012492554606553 124.30356811685319 125.78993950485977 H 0.0 **** 0.06
37470 H 27.73462757100529 123.64591900576174 124.15996807818365 H 0.0 **** 0.06
37471 C 9.311287869463172 19.961055190602963 74.30275335584565 C 0.0 **** -0.24
37472 H 10.345018004414783 19.649784357951418 74.15355239512994 H 0.0 **** 0.06
37473 H 8.641509432417138 19.17558122731586 73.95415055661354 H 0.0 **** 0.06
37474 H 9.12248970960502 20.876085408101872 73.74193664023286 H 0.0 **** 0.06
37475 H 9.137371422215665 20.143312363915427 75.36341724346758 H 0.0 **** 0.06
37476 C 124.78820578888882 99.10849474190894 68.64912663151416 C 0.0 **** -0.24
37477 H 123.80367252149152 99.19104510328881 69.10884732620089 H 0.0 **** 0.06
37478 H 125.00596200087851 100.01987619322836 68.09012243903373 H 0.0 **** 0.06
37479 H 124.80247507759535 98.25438178071082 67.9717626741516 H 0.0 **** 0.06
37480 H 125.54070228635707 98.96934892869459 69.42417813544434 H 0.0 **** 0.06
37481 C 67.70168901169102 41.65267440523591 68.7732869171396 C 0.0 **** -0.24
37482 H 68.72239941684812 42.00472687617303 68.62490639396948 H 0.0 **** 0.06
37483 H 67.0047196665037 42.4678800042418 68.57777206336745 H 0.0 **** 0.06
37484 H 67.58270817321488 41.30943078206686 69.80058035147643 H 0.0 **** 0.06
37485 H 67.49944165492435 40.82920247545594 68.08804719048335 H 0.0 **** 0.06
37486 C 96.04837500056675 122.13875593855519 103.75261950324818 C 0.0 **** -0.24
37487 H 95.4505553051953 121.82989547551675 104.60988741519543 H 0.0 **** 0.06
37488 H 95.39496024841438 122.3050328088435 102.89530409053873 H 0.0 **** 0.06
37489 H 96.77052841690272 121.35902710530323 103.51344220413824 H 0.0 **** 0.06
37490 H 96.57661767251405 123.06193730907512 103.9925806461836 H 0.0 **** 0.06
37491 C 58.1351507721286 51.0155778376413 9.245479313385857 C 0.0 **** -0.24
37492 H 57.8066887003359 50.64354939810477 8.274978421738098 H 0.0 **** 0.06
37493 H 58.95954893548908 51.715174410592226 9.106264399055021 H 0.0 **** 0.06
37494 H 58.468105168860234 50.17878523355364 9.86087274159118 H 0.0 **** 0.06
37495 H 57.306662335312225 51.52238657301058 9.739747716711122 H 0.0 **** 0.06
37496 C 103.75532711112217 7.099383570831215 84.66808350290225 C 0.0 **** -0.24
37497 H 102.93884758270771 7.813415281121976 84.77570953993616 H 0.0 **** 0.06
37498 H 104.39937837567166 7.149877456531975 85.54591309712985 H 0.0 **** 0.06
37499 H 104.3350335184991 7.343364121087358 83.77754126768316 H 0.0 **** 0.06
37500 H 103.34830947207239 6.093283143632274 84.5727893326746 H 0.0 **** 0.06
@<TRIPOS>BOND
1 1 2 28
2 1 3 28
3 1 4 28
4 1 5 28
5 6 7 28
6 6 8 28
7 6 9 28
8 6 10 28
9 11 12 28
10 11 13 28
11 11 14 28
12 11 15 28
13 16 17 28
14 16 18 28
15 16 19 28
16 16 20 28
17 21 22 28
18 21 23 28
19 21 24 28
20 21 25 28
21 26 27 28
22 26 28 28
23 26 29 28
24 26 30 28
25 31 32 28
26 31 33 28
27 31 34 28
28 31 35 28
29 36 37 28
30 36 38 28
31 36 39 28
32 36 40 28
33 41 42 28
34 41 43 28
35 41 44 28
36 41 45 28
37 46 47 28
38 46 48 28
39 46 49 28
40 46 50 28
41 51 52 28
42 51 53 28
43 51 54 28
44 51 55 28
45 56 57 28
46 56 58 28
47 56 59 28
48 56 60 28
49 61 62 28
50 61 63 28
51 61 64 28
52 61 65 28
53 66 67 28
54 66 68 28
55 66 69 28
56 66 70 28
57 71 72 28
58 71 73 28
59 71 74 28
60 71 75 28
61 76 77 28
62 76 78 28
63 76 79 28
64 76 80 28
65 81 82 28
66 81 83 28
67 81 84 28
68 81 85 28
69 86 87 28
70 86 88 28
71 86 89 28
72 86 90 28
73 91 92 28
74 91 93 28
75 91 94 28
76 91 95 28
77 96 97 28
78 96 98 28
79 96 99 28
80 96 100 28
81 101 102 28
82 101 103 28
83 101 104 28
84 101 105 28
85 106 107 28
86 106 108 28
87 106 109 28
88 106 110 28
89 111 112 28
90 111 113 28
91 111 114 28
92 111 115 28
93 116 117 28
94 116 118 28
95 116 119 28
96 116 120 28
97 121 122 28
98 121 123 28
99 121 124 28
100 121 125 28
101 126 127 28
102 126 128 28
103 126 129 28
104 126 130 28
105 131 132 28
106 131 133 28
107 131 134 28
108 131 135 28
109 136 137 28
110 136 138 28
111 136 139 28
112 136 140 28
113 141 142 28
114 141 143 28
115 141 144 28
116 141 145 28
117 146 147 28
118 146 148 28
119 146 149 28
120 146 150 28
121 151 152 28
122 151 153 28
123 151 154 28
124 151 155 28
125 156 157 28
126 156 158 28
127 156 159 28
128 156 160 28
129 161 162 28
130 161 163 28
131 161 164 28
132 161 165 28
133 166 167 28
134 166 168 28
135 166 169 28
136 166 170 28
137 171 172 28
138 171 173 28
139 171 174 28
140 171 175 28
141 176 177 28
142 176 178 28
143 176 179 28
144 176 180 28
145 181 182 28
146 181 183 28
147 181 184 28
148 181 185 28
149 186 187 28
150 186 188 28
151 186 189 28
152 186 190 28
153 191 192 28
154 191 193 28
155 191 194 28
156 191 195 28
157 196 197 28
158 196 198 28
159 196 199 28
160 196 200 28
161 201 202 28
162 201 203 28
163 201 204 28
164 201 205 28
165 206 207 28
166 206 208 28
167 206 209 28
168 206 210 28
169 211 212 28
170 211 213 28
171 211 214 28
172 211 215 28
173 216 217 28
174 216 218 28
175 216 219 28
176 216 220 28
177 221 222 28
178 221 223 28
179 221 224 28
180 221 225 28
181 226 227 28
182 226 228 28
183 226 229 28
184 226 230 28
185 231 232 28
186 231 233 28
187 231 234 28
188 231 235 28
189 236 237 28
190 236 238 28
191 236 239 28
192 236 240 28
193 241 242 28
194 241 243 28
195 241 244 28
196 241 245 28
197 246 247 28
198 246 248 28
199 246 249 28
200 246 250 28
201 251 252 28
202 251 253 28
203 251 254 28
204 251 255 28
205 256 257 28
206 256 258 28
207 256 259 28
208 256 260 28
209 261 262 28
210 261 263 28
211 261 264 28
212 261 265 28
213 266 267 28
214 266 268 28
215 266 269 28
216 266 270 28
217 271 272 28
218 271 273 28
219 271 274 28
220 271 275 28
221 276 277 28
222 276 278 28
223 276 279 28
224 276 280 28
225 281 282 28
226 281 283 28
227 281 284 28
228 281 285 28
229 286 287 28
230 286 288 28
231 286 289 28
232 286 290 28
233 291 292 28
234 291 293 28
235 291 294 28
236 291 295 28
237 296 297 28
238 296 298 28
239 296 299 28
240 296 300 28
241 301 302 28
242 301 303 28
243 301 304 28
244 301 305 28
245 306 307 28
246 306 308 28
247 306 309 28
248 306 310 28
249 311 312 28
250 311 313 28
251 311 314 28
252 311 315 28
253 316 317 28
254 316 318 28
255 316 319 28
256 316 320 28
257 321 322 28
258 321 323 28
259 321 324 28
260 321 325 28
261 326 327 28
262 326 328 28
263 326 329 28
264 326 330 28
265 331 332 28
266 331 333 28
267 331 334 28
268 331 335 28
269 336 337 28
270 336 338 28
271 336 339 28
272 336 340 28
273 341 342 28
274 341 343 28
275 341 344 28
276 341 345 28
277 346 347 28
278 346 348 28
279 346 349 28
280 346 350 28
281 351 352 28
282 351 353 28
283 351 354 28
284 351 355 28
285 356 357 28
286 356 358 28
287 356 359 28
288 356 360 28
289 361 362 28
290 361 363 28
291 361 364 28
292 361 365 28
293 366 367 28
294 366 368 28
295 366 369 28
296 366 370 28
297 371 372 28
298 371 373 28
299 371 374 28
300 371 375 28
301 376 377 28
302 376 378 28
303 376 379 28
304 376 380 28
305 381 382 28
306 381 383 28
307 381 384 28
308 381 385 28
309 386 387 28
310 386 388 28
311 386 389 28
312 386 390 28
313 391 392 28
314 391 393 28
315 391 394 28
316 391 395 28
317 396 397 28
318 396 398 28
319 396 399 28
320 396 400 28
321 401 402 28
322 401 403 28
323 401 404 28
324 401 405 28
325 406 407 28
326 406 408 28
327 406 409 28
328 406 410 28
329 411 412 28
330 411 413 28
331 411 414 28
332 411 415 28
333 416 417 28
334 416 418 28
335 416 419 28
336 416 420 28
337 421 422 28
338 421 423 28
339 421 424 28
340 421 425 28
341 426 427 28
342 426 428 28
343 426 429 28
344 426 430 28
345 431 432 28
346 431 433 28
347 431 434 28
348 431 435 28
349 436 437 28
350 436 438 28
351 436 439 28
352 436 440 28
353 441 442 28
354 441 443 28
355 441 444 28
356 441 445 28
357 446 447 28
358 446 448 28
359 446 449 28
360 446 450 28
361 451 452 28
362 451 453 28
363 451 454 28
364 451 455 28
365 456 457 28
366 456 458 28
367 456 459 28
368 456 460 28
369 461 462 28
370 461 463 28
371 461 464 28
372 461 465 28
373 466 467 28
374 466 468 28
375 466 469 28
376 466 470 28
377 471 472 28
378 471 473 28
379 471 474 28
380 471 475 28
381 476 477 28
382 476 478 28
383 476 479 28
384 476 480 28
385 481 482 28
386 481 483 28
387 481 484 28
388 481 485 28
389 486 487 28
390 486 488 28
391 486 489 28
392 486 490 28
393 491 492 28
394 491 493 28
395 491 494 28
396 491 495 28
397 496 497 28
398 496 498 28
399 496 499 28
400 496 500 28
401 501 502 28
402 501 503 28
403 501 504 28
404 501 505 28
405 506 507 28
406 506 508 28
407 506 509 28
408 506 510 28
409 511 512 28
410 511 513 28
411 511 514 28
412 511 515 28
413 516 517 28
414 516 518 28
415 516 519 28
416 516 520 28
417 521 522 28
418 521 523 28
419 521 524 28
420 521 525 28
421 526 527 28
422 526 528 28
423 526 529 28
424 526 530 28
425 531 532 28
426 531 533 28
427 531 534 28
428 531 535 28
429 536 537 28
430 536 538 28
431 536 539 28
432 536 540 28
433 541 542 28
434 541 543 28
435 541 544 28
436 541 545 28
437 546 547 28
438 546 548 28
439 546 549 28
440 546 550 28
441 551 552 28
442 551 553 28
443 551 554 28
444 551 555 28
445 556 557 28
446 556 558 28
447 556 559 28
448 556 560 28
449 561 562 28
450 561 563 28
451 561 564 28
452 561 565 28
453 566 567 28
454 566 568 28
455 566 569 28
456 566 570 28
457 571 572 28
458 571 573 28
459 571 574 28
460 571 575 28
461 576 577 28
462 576 578 28
463 576 579 28
464 576 580 28
465 581 582 28
466 581 583 28
467 581 584 28
468 581 585 28
469 586 587 28
470 586 588 28
471 586 589 28
472 586 590 28
473 591 592 28
474 591 593 28
475 591 594 28
476 591 595 28
477 596 597 28
478 596 598 28
479 596 599 28
480 596 600 28
481 601 602 28
482 601 603 28
483 601 604 28
484 601 605 28
485 606 607 28
486 606 608 28
487 606 609 28
488 606 610 28
489 611 612 28
490 611 613 28
491 611 614 28
492 611 615 28
493 616 617 28
494 616 618 28
495 616 619 28
496 616 620 28
497 621 622 28
498 621 623 28
499 621 624 28
500 621 625 28
501 626 627 28
502 626 628 28
503 626 629 28
504 626 630 28
505 631 632 28
506 631 633 28
507 631 634 28
508 631 635 28
509 636 637 28
510 636 638 28
511 636 639 28
512 636 640 28
513 641 642 28
514 641 643 28
515 641 644 28
516 641 645 28
517 646 647 28
518 646 648 28
519 646 649 28
520 646 650 28
521 651 652 28
522 651 653 28
523 651 654 28
524 651 655 28
525 656 657 28
526 656 658 28
527 656 659 28
528 656 660 28
529 661 662 28
530 661 663 28
531 661 664 28
532 661 665 28
533 666 667 28
534 666 668 28
535 666 669 28
536 666 670 28
537 671 672 28
538 671 673 28
539 671 674 28
540 671 675 28
541 676 677 28
542 676 678 28
543 676 679 28
544 676 680 28
545 681 682 28
546 681 683 28
547 681 684 28
548 681 685 28
549 686 687 28
550 686 688 28
551 686 689 28
552 686 690 28
553 691 692 28
554 691 693 28
555 691 694 28
556 691 695 28
557 696 697 28
558 696 698 28
559 696 699 28
560 696 700 28
561 701 702 28
562 701 703 28
563 701 704 28
564 701 705 28
565 706 707 28
566 706 708 28
567 706 709 28
568 706 710 28
569 711 712 28
570 711 713 28
571 711 714 28
572 711 715 28
573 716 717 28
574 716 718 28
575 716 719 28
576 716 720 28
577 721 722 28
578 721 723 28
579 721 724 28
580 721 725 28
581 726 727 28
582 726 728 28
583 726 729 28
584 726 730 28
585 731 732 28
586 731 733 28
587 731 734 28
588 731 735 28
589 736 737 28
590 736 738 28
591 736 739 28
592 736 740 28
593 741 742 28
594 741 743 28
595 741 744 28
596 741 745 28
597 746 747 28
598 746 748 28
599 746 749 28
600 746 750 28
601 751 752 28
602 751 753 28
603 751 754 28
604 751 755 28
605 756 757 28
606 756 758 28
607 756 759 28
608 756 760 28
609 761 762 28
610 761 763 28
611 761 764 28
612 761 765 28
613 766 767 28
614 766 768 28
615 766 769 28
616 766 770 28
617 771 772 28
618 771 773 28
619 771 774 28
620 771 775 28
621 776 777 28
622 776 778 28
623 776 779 28
624 776 780 28
625 781 782 28
626 781 783 28
627 781 784 28
628 781 785 28
629 786 787 28
630 786 788 28
631 786 789 28
632 786 790 28
633 791 792 28
634 791 793 28
635 791 794 28
636 791 795 28
637 796 797 28
638 796 798 28
639 796 799 28
640 796 800 28
641 801 802 28
642 801 803 28
643 801 804 28
644 801 805 28
645 806 807 28
646 806 808 28
647 806 809 28
648 806 810 28
649 811 812 28
650 811 813 28
651 811 814 28
652 811 815 28
653 816 817 28
654 816 818 28
655 816 819 28
656 816 820 28
657 821 822 28
658 821 823 28
659 821 824 28
660 821 825 28
661 826 827 28
662 826 828 28
663 826 829 28
664 826 830 28
665 831 832 28
666 831 833 28
667 831 834 28
668 831 835 28
669 836 837 28
670 836 838 28
671 836 839 28
672 836 840 28
673 841 842 28
674 841 843 28
675 841 844 28
676 841 845 28
677 846 847 28
678 846 848 28
679 846 849 28
680 846 850 28
681 851 852 28
682 851 853 28
683 851 854 28
684 851 855 28
685 856 857 28
686 856 858 28
687 856 859 28
688 856 860 28
689 861 862 28
690 861 863 28
691 861 864 28
692 861 865 28
693 866 867 28
694 866 868 28
695 866 869 28
696 866 870 28
697 871 872 28
698 871 873 28
699 871 874 28
700 871 875 28
701 876 877 28
702 876 878 28
703 876 879 28
704 876 880 28
705 881 882 28
706 881 883 28
707 881 884 28
708 881 885 28
709 886 887 28
710 886 888 28
711 886 889 28
712 886 890 28
713 891 892 28
714 891 893 28
715 891 894 28
716 891 895 28
717 896 897 28
718 896 898 28
719 896 899 28
720 896 900 28
721 901 902 28
722 901 903 28
723 901 904 28
724 901 905 28
725 906 907 28
726 906 908 28
727 906 909 28
728 906 910 28
729 911 912 28
730 911 913 28
731 911 914 28
732 911 915 28
733 916 917 28
734 916 918 28
735 916 919 28
736 916 920 28
737 921 922 28
738 921 923 28
739 921 924 28
740 921 925 28
741 926 927 28
742 926 928 28
743 926 929 28
744 926 930 28
745 931 932 28
746 931 933 28
747 931 934 28
748 931 935 28
749 936 937 28
750 936 938 28
751 936 939 28
752 936 940 28
753 941 942 28
754 941 943 28
755 941 944 28
756 941 945 28
757 946 947 28
758 946 948 28
759 946 949 28
760 946 950 28
761 951 952 28
762 951 953 28
763 951 954 28
764 951 955 28
765 956 957 28
766 956 958 28
767 956 959 28
768 956 960 28
769 961 962 28
770 961 963 28
771 961 964 28
772 961 965 28
773 966 967 28
774 966 968 28
775 966 969 28
776 966 970 28
777 971 972 28
778 971 973 28
779 971 974 28
780 971 975 28
781 976 977 28
782 976 978 28
783 976 979 28
784 976 980 28
785 981 982 28
786 981 983 28
787 981 984 28
788 981 985 28
789 986 987 28
790 986 988 28
791 986 989 28
792 986 990 28
793 991 992 28
794 991 993 28
795 991 994 28
796 991 995 28
797 996 997 28
798 996 998 28
799 996 999 28
800 996 1000 28
801 1001 1002 28
802 1001 1003 28
803 1001 1004 28
804 1001 1005 28
805 1006 1007 28
806 1006 1008 28
807 1006 1009 28
808 1006 1010 28
809 1011 1012 28
810 1011 1013 28
811 1011 1014 28
812 1011 1015 28
813 1016 1017 28
814 1016 1018 28
815 1016 1019 28
816 1016 1020 28
817 1021 1022 28
818 1021 1023 28
819 1021 1024 28
820 1021 1025 28
821 1026 1027 28
822 1026 1028 28
823 1026 1029 28
824 1026 1030 28
825 1031 1032 28
826 1031 1033 28
827 1031 1034 28
828 1031 1035 28
829 1036 1037 28
830 1036 1038 28
831 1036 1039 28
832 1036 1040 28
833 1041 1042 28
834 1041 1043 28
835 1041 1044 28
836 1041 1045 28
837 1046 1047 28
838 1046 1048 28
839 1046 1049 28
840 1046 1050 28
841 1051 1052 28
842 1051 1053 28
843 1051 1054 28
844 1051 1055 28
845 1056 1057 28
846 1056 1058 28
847 1056 1059 28
848 1056 1060 28
849 1061 1062 28
850 1061 1063 28
851 1061 1064 28
852 1061 1065 28
853 1066 1067 28
854 1066 1068 28
855 1066 1069 28
856 1066 1070 28
857 1071 1072 28
858 1071 1073 28
859 1071 1074 28
860 1071 1075 28
861 1076 1077 28
862 1076 1078 28
863 1076 1079 28
864 1076 1080 28
865 1081 1082 28
866 1081 1083 28
867 1081 1084 28
868 1081 1085 28
869 1086 1087 28
870 1086 1088 28
871 1086 1089 28
872 1086 1090 28
873 1091 1092 28
874 1091 1093 28
875 1091 1094 28
876 1091 1095 28
877 1096 1097 28
878 1096 1098 28
879 1096 1099 28
880 1096 1100 28
881 1101 1102 28
882 1101 1103 28
883 1101 1104 28
884 1101 1105 28
885 1106 1107 28
886 1106 1108 28
887 1106 1109 28
888 1106 1110 28
889 1111 1112 28
890 1111 1113 28
891 1111 1114 28
892 1111 1115 28
893 1116 1117 28
894 1116 1118 28
895 1116 1119 28
896 1116 1120 28
897 1121 1122 28
898 1121 1123 28
899 1121 1124 28
900 1121 1125 28
901 1126 1127 28
902 1126 1128 28
903 1126 1129 28
904 1126 1130 28
905 1131 1132 28
906 1131 1133 28
907 1131 1134 28
908 1131 1135 28
909 1136 1137 28
910 1136 1138 28
911 1136 1139 28
912 1136 1140 28
913 1141 1142 28
914 1141 1143 28
915 1141 1144 28
916 1141 1145 28
917 1146 1147 28
918 1146 1148 28
919 1146 1149 28
920 1146 1150 28
921 1151 1152 28
922 1151 1153 28
923 1151 1154 28
924 1151 1155 28
925 1156 1157 28
926 1156 1158 28
927 1156 1159 28
928 1156 1160 28
929 1161 1162 28
930 1161 1163 28
931 1161 1164 28
932 1161 1165 28
933 1166 1167 28
934 1166 1168 28
935 1166 1169 28
936 1166 1170 28
937 1171 1172 28
938 1171 1173 28
939 1171 1174 28
940 1171 1175 28
941 1176 1177 28
942 1176 1178 28
943 1176 1179 28
944 1176 1180 28
945 1181 1182 28
946 1181 1183 28
947 1181 1184 28
948 1181 1185 28
949 1186 1187 28
950 1186 1188 28
951 1186 1189 28
952 1186 1190 28
953 1191 1192 28
954 1191 1193 28
955 1191 1194 28
956 1191 1195 28
957 1196 1197 28
958 1196 1198 28
959 1196 1199 28
960 1196 1200 28
961 1201 1202 28
962 1201 1203 28
963 1201 1204 28
964 1201 1205 28
965 1206 1207 28
966 1206 1208 28
967 1206 1209 28
968 1206 1210 28
969 1211 1212 28
970 1211 1213 28
971 1211 1214 28
972 1211 1215 28
973 1216 1217 28
974 1216 1218 28
975 1216 1219 28
976 1216 1220 28
977 1221 1222 28
978 1221 1223 28
979 1221 1224 28
980 1221 1225 28
981 1226 1227 28
982 1226 1228 28
983 1226 1229 28
984 1226 1230 28
985 1231 1232 28
986 1231 1233 28
987 1231 1234 28
988 1231 1235 28
989 1236 1237 28
990 1236 1238 28
991 1236 1239 28
992 1236 1240 28
993 1241 1242 28
994 1241 1243 28
995 1241 1244 28
996 1241 1245 28
997 1246 1247 28
998 1246 1248 28
999 1246 1249 28
1000 1246 1250 28
1001 1251 1252 28
1002 1251 1253 28
1003 1251 1254 28
1004 1251 1255 28
1005 1256 1257 28
1006 1256 1258 28
1007 1256 1259 28
1008 1256 1260 28
1009 1261 1262 28
1010 1261 1263 28
1011 1261 1264 28
1012 1261 1265 28
1013 1266 1267 28
1014 1266 1268 28
1015 1266 1269 28
1016 1266 1270 28
1017 1271 1272 28
1018 1271 1273 28
1019 1271 1274 28
1020 1271 1275 28
1021 1276 1277 28
1022 1276 1278 28
1023 1276 1279 28
1024 1276 1280 28
1025 1281 1282 28
1026 1281 1283 28
1027 1281 1284 28
1028 1281 1285 28
1029 1286 1287 28
1030 1286 1288 28
1031 1286 1289 28
1032 1286 1290 28
1033 1291 1292 28
1034 1291 1293 28
1035 1291 1294 28
1036 1291 1295 28
1037 1296 1297 28
1038 1296 1298 28
1039 1296 1299 28
1040 1296 1300 28
1041 1301 1302 28
1042 1301 1303 28
1043 1301 1304 28
1044 1301 1305 28
1045 1306 1307 28
1046 1306 1308 28
1047 1306 1309 28
1048 1306 1310 28
1049 1311 1312 28
1050 1311 1313 28
1051 1311 1314 28
1052 1311 1315 28
1053 1316 1317 28
1054 1316 1318 28
1055 1316 1319 28
1056 1316 1320 28
1057 1321 1322 28
1058 1321 1323 28
1059 1321 1324 28
1060 1321 1325 28
1061 1326 1327 28
1062 1326 1328 28
1063 1326 1329 28
1064 1326 1330 28
1065 1331 1332 28
1066 1331 1333 28
1067 1331 1334 28
1068 1331 1335 28
1069 1336 1337 28
1070 1336 1338 28
1071 1336 1339 28
1072 1336 1340 28
1073 1341 1342 28
1074 1341 1343 28
1075 1341 1344 28
1076 1341 1345 28
1077 1346 1347 28
1078 1346 1348 28
1079 1346 1349 28
1080 1346 1350 28
1081 1351 1352 28
1082 1351 1353 28
1083 1351 1354 28
1084 1351 1355 28
1085 1356 1357 28
1086 1356 1358 28
1087 1356 1359 28
1088 1356 1360 28
1089 1361 1362 28
1090 1361 1363 28
1091 1361 1364 28
1092 1361 1365 28
1093 1366 1367 28
1094 1366 1368 28
1095 1366 1369 28
1096 1366 1370 28
1097 1371 1372 28
1098 1371 1373 28
1099 1371 1374 28
1100 1371 1375 28
1101 1376 1377 28
1102 1376 1378 28
1103 1376 1379 28
1104 1376 1380 28
1105 1381 1382 28
1106 1381 1383 28
1107 1381 1384 28
1108 1381 1385 28
1109 1386 1387 28
1110 1386 1388 28
1111 1386 1389 28
1112 1386 1390 28
1113 1391 1392 28
1114 1391 1393 28
1115 1391 1394 28
1116 1391 1395 28
1117 1396 1397 28
1118 1396 1398 28
1119 1396 1399 28
1120 1396 1400 28
1121 1401 1402 28
1122 1401 1403 28
1123 1401 1404 28
1124 1401 1405 28
1125 1406 1407 28
1126 1406 1408 28
1127 1406 1409 28
1128 1406 1410 28
1129 1411 1412 28
1130 1411 1413 28
1131 1411 1414 28
1132 1411 1415 28
1133 1416 1417 28
1134 1416 1418 28
1135 1416 1419 28
1136 1416 1420 28
1137 1421 1422 28
1138 1421 1423 28
1139 1421 1424 28
1140 1421 1425 28
1141 1426 1427 28
1142 1426 1428 28
1143 1426 1429 28
1144 1426 1430 28
1145 1431 1432 28
1146 1431 1433 28
1147 1431 1434 28
1148 1431 1435 28
1149 1436 1437 28
1150 1436 1438 28
1151 1436 1439 28
1152 1436 1440 28
1153 1441 1442 28
1154 1441 1443 28
1155 1441 1444 28
1156 1441 1445 28
1157 1446 1447 28
1158 1446 1448 28
1159 1446 1449 28
1160 1446 1450 28
1161 1451 1452 28
1162 1451 1453 28
1163 1451 1454 28
1164 1451 1455 28
1165 1456 1457 28
1166 1456 1458 28
1167 1456 1459 28
1168 1456 1460 28
1169 1461 1462 28
1170 1461 1463 28
1171 1461 1464 28
1172 1461 1465 28
1173 1466 1467 28
1174 1466 1468 28
1175 1466 1469 28
1176 1466 1470 28
1177 1471 1472 28
1178 1471 1473 28
1179 1471 1474 28
1180 1471 1475 28
1181 1476 1477 28
1182 1476 1478 28
1183 1476 1479 28
1184 1476 1480 28
1185 1481 1482 28
1186 1481 1483 28
1187 1481 1484 28
1188 1481 1485 28
1189 1486 1487 28
1190 1486 1488 28
1191 1486 1489 28
1192 1486 1490 28
1193 1491 1492 28
1194 1491 1493 28
1195 1491 1494 28
1196 1491 1495 28
1197 1496 1497 28
1198 1496 1498 28
1199 1496 1499 28
1200 1496 1500 28
1201 1501 1502 28
1202 1501 1503 28
1203 1501 1504 28
1204 1501 1505 28
1205 1506 1507 28
1206 1506 1508 28
1207 1506 1509 28
1208 1506 1510 28
1209 1511 1512 28
1210 1511 1513 28
1211 1511 1514 28
1212 1511 1515 28
1213 1516 1517 28
1214 1516 1518 28
1215 1516 1519 28
1216 1516 1520 28
1217 1521 1522 28
1218 1521 1523 28
1219 1521 1524 28
1220 1521 1525 28
1221 1526 1527 28
1222 1526 1528 28
1223 1526 1529 28
1224 1526 1530 28
1225 1531 1532 28
1226 1531 1533 28
1227 1531 1534 28
1228 1531 1535 28
1229 1536 1537 28
1230 1536 1538 28
1231 1536 1539 28
1232 1536 1540 28
1233 1541 1542 28
1234 1541 1543 28
1235 1541 1544 28
1236 1541 1545 28
1237 1546 1547 28
1238 1546 1548 28
1239 1546 1549 28
1240 1546 1550 28
1241 1551 1552 28
1242 1551 1553 28
1243 1551 1554 28
1244 1551 1555 28
1245 1556 1557 28
1246 1556 1558 28
1247 1556 1559 28
1248 1556 1560 28
1249 1561 1562 28
1250 1561 1563 28
1251 1561 1564 28
1252 1561 1565 28
1253 1566 1567 28
1254 1566 1568 28
1255 1566 1569 28
1256 1566 1570 28
1257 1571 1572 28
1258 1571 1573 28
1259 1571 1574 28
1260 1571 1575 28
1261 1576 1577 28
1262 1576 1578 28
1263 1576 1579 28
1264 1576 1580 28
1265 1581 1582 28
1266 1581 1583 28
1267 1581 1584 28
1268 1581 1585 28
1269 1586 1587 28
1270 1586 1588 28
1271 1586 1589 28
1272 1586 1590 28
1273 1591 1592 28
1274 1591 1593 28
1275 1591 1594 28
1276 1591 1595 28
1277 1596 1597 28
1278 1596 1598 28
1279 1596 1599 28
1280 1596 1600 28
1281 1601 1602 28
1282 1601 1603 28
1283 1601 1604 28
1284 1601 1605 28
1285 1606 1607 28
1286 1606 1608 28
1287 1606 1609 28
1288 1606 1610 28
1289 1611 1612 28
1290 1611 1613 28
1291 1611 1614 28
1292 1611 1615 28
1293 1616 1617 28
1294 1616 1618 28
1295 1616 1619 28
1296 1616 1620 28
1297 1621 1622 28
1298 1621 1623 28
1299 1621 1624 28
1300 1621 1625 28
1301 1626 1627 28
1302 1626 1628 28
1303 1626 1629 28
1304 1626 1630 28
1305 1631 1632 28
1306 1631 1633 28
1307 1631 1634 28
1308 1631 1635 28
1309 1636 1637 28
1310 1636 1638 28
1311 1636 1639 28
1312 1636 1640 28
1313 1641 1642 28
1314 1641 1643 28
1315 1641 1644 28
1316 1641 1645 28
1317 1646 1647 28
1318 1646 1648 28
1319 1646 1649 28
1320 1646 1650 28
1321 1651 1652 28
1322 1651 1653 28
1323 1651 1654 28
1324 1651 1655 28
1325 1656 1657 28
1326 1656 1658 28
1327 1656 1659 28
1328 1656 1660 28
1329 1661 1662 28
1330 1661 1663 28
1331 1661 1664 28
1332 1661 1665 28
1333 1666 1667 28
1334 1666 1668 28
1335 1666 1669 28
1336 1666 1670 28
1337 1671 1672 28
1338 1671 1673 28
1339 1671 1674 28
1340 1671 1675 28
1341 1676 1677 28
1342 1676 1678 28
1343 1676 1679 28
1344 1676 1680 28
1345 1681 1682 28
1346 1681 1683 28
1347 1681 1684 28
1348 1681 1685 28
1349 1686 1687 28
1350 1686 1688 28
1351 1686 1689 28
1352 1686 1690 28
1353 1691 1692 28
1354 1691 1693 28
1355 1691 1694 28
1356 1691 1695 28
1357 1696 1697 28
1358 1696 1698 28
1359 1696 1699 28
1360 1696 1700 28
1361 1701 1702 28
1362 1701 1703 28
1363 1701 1704 28
1364 1701 1705 28
1365 1706 1707 28
1366 1706 1708 28
1367 1706 1709 28
1368 1706 1710 28
1369 1711 1712 28
1370 1711 1713 28
1371 1711 1714 28
1372 1711 1715 28
1373 1716 1717 28
1374 1716 1718 28
1375 1716 1719 28
1376 1716 1720 28
1377 1721 1722 28
1378 1721 1723 28
1379 1721 1724 28
1380 1721 1725 28
1381 1726 1727 28
1382 1726 1728 28
1383 1726 1729 28
1384 1726 1730 28
1385 1731 1732 28
1386 1731 1733 28
1387 1731 1734 28
1388 1731 1735 28
1389 1736 1737 28
1390 1736 1738 28
1391 1736 1739 28
1392 1736 1740 28
1393 1741 1742 28
1394 1741 1743 28
1395 1741 1744 28
1396 1741 1745 28
1397 1746 1747 28
1398 1746 1748 28
1399 1746 1749 28
1400 1746 1750 28
1401 1751 1752 28
1402 1751 1753 28
1403 1751 1754 28
1404 1751 1755 28
1405 1756 1757 28
1406 1756 1758 28
1407 1756 1759 28
1408 1756 1760 28
1409 1761 1762 28
1410 1761 1763 28
1411 1761 1764 28
1412 1761 1765 28
1413 1766 1767 28
1414 1766 1768 28
1415 1766 1769 28
1416 1766 1770 28
1417 1771 1772 28
1418 1771 1773 28
1419 1771 1774 28
1420 1771 1775 28
1421 1776 1777 28
1422 1776 1778 28
1423 1776 1779 28
1424 1776 1780 28
1425 1781 1782 28
1426 1781 1783 28
1427 1781 1784 28
1428 1781 1785 28
1429 1786 1787 28
1430 1786 1788 28
1431 1786 1789 28
1432 1786 1790 28
1433 1791 1792 28
1434 1791 1793 28
1435 1791 1794 28
1436 1791 1795 28
1437 1796 1797 28
1438 1796 1798 28
1439 1796 1799 28
1440 1796 1800 28
1441 1801 1802 28
1442 1801 1803 28
1443 1801 1804 28
1444 1801 1805 28
1445 1806 1807 28
1446 1806 1808 28
1447 1806 1809 28
1448 1806 1810 28
1449 1811 1812 28
1450 1811 1813 28
1451 1811 1814 28
1452 1811 1815 28
1453 1816 1817 28
1454 1816 1818 28
1455 1816 1819 28
1456 1816 1820 28
1457 1821 1822 28
1458 1821 1823 28
1459 1821 1824 28
1460 1821 1825 28
1461 1826 1827 28
1462 1826 1828 28
1463 1826 1829 28
1464 1826 1830 28
1465 1831 1832 28
1466 1831 1833 28
1467 1831 1834 28
1468 1831 1835 28
1469 1836 1837 28
1470 1836 1838 28
1471 1836 1839 28
1472 1836 1840 28
1473 1841 1842 28
1474 1841 1843 28
1475 1841 1844 28
1476 1841 1845 28
1477 1846 1847 28
1478 1846 1848 28
1479 1846 1849 28
1480 1846 1850 28
1481 1851 1852 28
1482 1851 1853 28
1483 1851 1854 28
1484 1851 1855 28
1485 1856 1857 28
1486 1856 1858 28
1487 1856 1859 28
1488 1856 1860 28
1489 1861 1862 28
1490 1861 1863 28
1491 1861 1864 28
1492 1861 1865 28
1493 1866 1867 28
1494 1866 1868 28
1495 1866 1869 28
1496 1866 1870 28
1497 1871 1872 28
1498 1871 1873 28
1499 1871 1874 28
1500 1871 1875 28
1501 1876 1877 28
1502 1876 1878 28
1503 1876 1879 28
1504 1876 1880 28
1505 1881 1882 28
1506 1881 1883 28
1507 1881 1884 28
1508 1881 1885 28
1509 1886 1887 28
1510 1886 1888 28
1511 1886 1889 28
1512 1886 1890 28
1513 1891 1892 28
1514 1891 1893 28
1515 1891 1894 28
1516 1891 1895 28
1517 1896 1897 28
1518 1896 1898 28
1519 1896 1899 28
1520 1896 1900 28
1521 1901 1902 28
1522 1901 1903 28
1523 1901 1904 28
1524 1901 1905 28
1525 1906 1907 28
1526 1906 1908 28
1527 1906 1909 28
1528 1906 1910 28
1529 1911 1912 28
1530 1911 1913 28
1531 1911 1914 28
1532 1911 1915 28
1533 1916 1917 28
1534 1916 1918 28
1535 1916 1919 28
1536 1916 1920 28
1537 1921 1922 28
1538 1921 1923 28
1539 1921 1924 28
1540 1921 1925 28
1541 1926 1927 28
1542 1926 1928 28
1543 1926 1929 28
1544 1926 1930 28
1545 1931 1932 28
1546 1931 1933 28
1547 1931 1934 28
1548 1931 1935 28
1549 1936 1937 28
1550 1936 1938 28
1551 1936 1939 28
1552 1936 1940 28
1553 1941 1942 28
1554 1941 1943 28
1555 1941 1944 28
1556 1941 1945 28
1557 1946 1947 28
1558 1946 1948 28
1559 1946 1949 28
1560 1946 1950 28
1561 1951 1952 28
1562 1951 1953 28
1563 1951 1954 28
1564 1951 1955 28
1565 1956 1957 28
1566 1956 1958 28
1567 1956 1959 28
1568 1956 1960 28
1569 1961 1962 28
1570 1961 1963 28
1571 1961 1964 28
1572 1961 1965 28
1573 1966 1967 28
1574 1966 1968 28
1575 1966 1969 28
1576 1966 1970 28
1577 1971 1972 28
1578 1971 1973 28
1579 1971 1974 28
1580 1971 1975 28
1581 1976 1977 28
1582 1976 1978 28
1583 1976 1979 28
1584 1976 1980 28
1585 1981 1982 28
1586 1981 1983 28
1587 1981 1984 28
1588 1981 1985 28
1589 1986 1987 28
1590 1986 1988 28
1591 1986 1989 28
1592 1986 1990 28
1593 1991 1992 28
1594 1991 1993 28
1595 1991 1994 28
1596 1991 1995 28
1597 1996 1997 28
1598 1996 1998 28
1599 1996 1999 28
1600 1996 2000 28
1601 2001 2002 28
1602 2001 2003 28
1603 2001 2004 28
1604 2001 2005 28
1605 2006 2007 28
1606 2006 2008 28
1607 2006 2009 28
1608 2006 2010 28
1609 2011 2012 28
1610 2011 2013 28
1611 2011 2014 28
1612 2011 2015 28
1613 2016 2017 28
1614 2016 2018 28
1615 2016 2019 28
1616 2016 2020 28
1617 2021 2022 28
1618 2021 2023 28
1619 2021 2024 28
1620 2021 2025 28
1621 2026 2027 28
1622 2026 2028 28
1623 2026 2029 28
1624 2026 2030 28
1625 2031 2032 28
1626 2031 2033 28
1627 2031 2034 28
1628 2031 2035 28
1629 2036 2037 28
1630 2036 2038 28
1631 2036 2039 28
1632 2036 2040 28
1633 2041 2042 28
1634 2041 2043 28
1635 2041 2044 28
1636 2041 2045 28
1637 2046 2047 28
1638 2046 2048 28
1639 2046 2049 28
1640 2046 2050 28
1641 2051 2052 28
1642 2051 2053 28
1643 2051 2054 28
1644 2051 2055 28
1645 2056 2057 28
1646 2056 2058 28
1647 2056 2059 28
1648 2056 2060 28
1649 2061 2062 28
1650 2061 2063 28
1651 2061 2064 28
1652 2061 2065 28
1653 2066 2067 28
1654 2066 2068 28
1655 2066 2069 28
1656 2066 2070 28
1657 2071 2072 28
1658 2071 2073 28
1659 2071 2074 28
1660 2071 2075 28
1661 2076 2077 28
1662 2076 2078 28
1663 2076 2079 28
1664 2076 2080 28
1665 2081 2082 28
1666 2081 2083 28
1667 2081 2084 28
1668 2081 2085 28
1669 2086 2087 28
1670 2086 2088 28
1671 2086 2089 28
1672 2086 2090 28
1673 2091 2092 28
1674 2091 2093 28
1675 2091 2094 28
1676 2091 2095 28
1677 2096 2097 28
1678 2096 2098 28
1679 2096 2099 28
1680 2096 2100 28
1681 2101 2102 28
1682 2101 2103 28
1683 2101 2104 28
1684 2101 2105 28
1685 2106 2107 28
1686 2106 2108 28
1687 2106 2109 28
1688 2106 2110 28
1689 2111 2112 28
1690 2111 2113 28
1691 2111 2114 28
1692 2111 2115 28
1693 2116 2117 28
1694 2116 2118 28
1695 2116 2119 28
1696 2116 2120 28
1697 2121 2122 28
1698 2121 2123 28
1699 2121 2124 28
1700 2121 2125 28
1701 2126 2127 28
1702 2126 2128 28
1703 2126 2129 28
1704 2126 2130 28
1705 2131 2132 28
1706 2131 2133 28
1707 2131 2134 28
1708 2131 2135 28
1709 2136 2137 28
1710 2136 2138 28
1711 2136 2139 28
1712 2136 2140 28
1713 2141 2142 28
1714 2141 2143 28
1715 2141 2144 28
1716 2141 2145 28
1717 2146 2147 28
1718 2146 2148 28
1719 2146 2149 28
1720 2146 2150 28
1721 2151 2152 28
1722 2151 2153 28
1723 2151 2154 28
1724 2151 2155 28
1725 2156 2157 28
1726 2156 2158 28
1727 2156 2159 28
1728 2156 2160 28
1729 2161 2162 28
1730 2161 2163 28
1731 2161 2164 28
1732 2161 2165 28
1733 2166 2167 28
1734 2166 2168 28
1735 2166 2169 28
1736 2166 2170 28
1737 2171 2172 28
1738 2171 2173 28
1739 2171 2174 28
1740 2171 2175 28
1741 2176 2177 28
1742 2176 2178 28
1743 2176 2179 28
1744 2176 2180 28
1745 2181 2182 28
1746 2181 2183 28
1747 2181 2184 28
1748 2181 2185 28
1749 2186 2187 28
1750 2186 2188 28
1751 2186 2189 28
1752 2186 2190 28
1753 2191 2192 28
1754 2191 2193 28
1755 2191 2194 28
1756 2191 2195 28
1757 2196 2197 28
1758 2196 2198 28
1759 2196 2199 28
1760 2196 2200 28
1761 2201 2202 28
1762 2201 2203 28
1763 2201 2204 28
1764 2201 2205 28
1765 2206 2207 28
1766 2206 2208 28
1767 2206 2209 28
1768 2206 2210 28
1769 2211 2212 28
1770 2211 2213 28
1771 2211 2214 28
1772 2211 2215 28
1773 2216 2217 28
1774 2216 2218 28
1775 2216 2219 28
1776 2216 2220 28
1777 2221 2222 28
1778 2221 2223 28
1779 2221 2224 28
1780 2221 2225 28
1781 2226 2227 28
1782 2226 2228 28
1783 2226 2229 28
1784 2226 2230 28
1785 2231 2232 28
1786 2231 2233 28
1787 2231 2234 28
1788 2231 2235 28
1789 2236 2237 28
1790 2236 2238 28
1791 2236 2239 28
1792 2236 2240 28
1793 2241 2242 28
1794 2241 2243 28
1795 2241 2244 28
1796 2241 2245 28
1797 2246 2247 28
1798 2246 2248 28
1799 2246 2249 28
1800 2246 2250 28
1801 2251 2252 28
1802 2251 2253 28
1803 2251 2254 28
1804 2251 2255 28
1805 2256 2257 28
1806 2256 2258 28
1807 2256 2259 28
1808 2256 2260 28
1809 2261 2262 28
1810 2261 2263 28
1811 2261 2264 28
1812 2261 2265 28
1813 2266 2267 28
1814 2266 2268 28
1815 2266 2269 28
1816 2266 2270 28
1817 2271 2272 28
1818 2271 2273 28
1819 2271 2274 28
1820 2271 2275 28
1821 2276 2277 28
1822 2276 2278 28
1823 2276 2279 28
1824 2276 2280 28
1825 2281 2282 28
1826 2281 2283 28
1827 2281 2284 28
1828 2281 2285 28
1829 2286 2287 28
1830 2286 2288 28
1831 2286 2289 28
1832 2286 2290 28
1833 2291 2292 28
1834 2291 2293 28
1835 2291 2294 28
1836 2291 2295 28
1837 2296 2297 28
1838 2296 2298 28
1839 2296 2299 28
1840 2296 2300 28
1841 2301 2302 28
1842 2301 2303 28
1843 2301 2304 28
1844 2301 2305 28
1845 2306 2307 28
1846 2306 2308 28
1847 2306 2309 28
1848 2306 2310 28
1849 2311 2312 28
1850 2311 2313 28
1851 2311 2314 28
1852 2311 2315 28
1853 2316 2317 28
1854 2316 2318 28
1855 2316 2319 28
1856 2316 2320 28
1857 2321 2322 28
1858 2321 2323 28
1859 2321 2324 28
1860 2321 2325 28
1861 2326 2327 28
1862 2326 2328 28
1863 2326 2329 28
1864 2326 2330 28
1865 2331 2332 28
1866 2331 2333 28
1867 2331 2334 28
1868 2331 2335 28
1869 2336 2337 28
1870 2336 2338 28
1871 2336 2339 28
1872 2336 2340 28
1873 2341 2342 28
1874 2341 2343 28
1875 2341 2344 28
1876 2341 2345 28
1877 2346 2347 28
1878 2346 2348 28
1879 2346 2349 28
1880 2346 2350 28
1881 2351 2352 28
1882 2351 2353 28
1883 2351 2354 28
1884 2351 2355 28
1885 2356 2357 28
1886 2356 2358 28
1887 2356 2359 28
1888 2356 2360 28
1889 2361 2362 28
1890 2361 2363 28
1891 2361 2364 28
1892 2361 2365 28
1893 2366 2367 28
1894 2366 2368 28
1895 2366 2369 28
1896 2366 2370 28
1897 2371 2372 28
1898 2371 2373 28
1899 2371 2374 28
1900 2371 2375 28
1901 2376 2377 28
1902 2376 2378 28
1903 2376 2379 28
1904 2376 2380 28
1905 2381 2382 28
1906 2381 2383 28
1907 2381 2384 28
1908 2381 2385 28
1909 2386 2387 28
1910 2386 2388 28
1911 2386 2389 28
1912 2386 2390 28
1913 2391 2392 28
1914 2391 2393 28
1915 2391 2394 28
1916 2391 2395 28
1917 2396 2397 28
1918 2396 2398 28
1919 2396 2399 28
1920 2396 2400 28
1921 2401 2402 28
1922 2401 2403 28
1923 2401 2404 28
1924 2401 2405 28
1925 2406 2407 28
1926 2406 2408 28
1927 2406 2409 28
1928 2406 2410 28
1929 2411 2412 28
1930 2411 2413 28
1931 2411 2414 28
1932 2411 2415 28
1933 2416 2417 28
1934 2416 2418 28
1935 2416 2419 28
1936 2416 2420 28
1937 2421 2422 28
1938 2421 2423 28
1939 2421 2424 28
1940 2421 2425 28
1941 2426 2427 28
1942 2426 2428 28
1943 2426 2429 28
1944 2426 2430 28
1945 2431 2432 28
1946 2431 2433 28
1947 2431 2434 28
1948 2431 2435 28
1949 2436 2437 28
1950 2436 2438 28
1951 2436 2439 28
1952 2436 2440 28
1953 2441 2442 28
1954 2441 2443 28
1955 2441 2444 28
1956 2441 2445 28
1957 2446 2447 28
1958 2446 2448 28
1959 2446 2449 28
1960 2446 2450 28
1961 2451 2452 28
1962 2451 2453 28
1963 2451 2454 28
1964 2451 2455 28
1965 2456 2457 28
1966 2456 2458 28
1967 2456 2459 28
1968 2456 2460 28
1969 2461 2462 28
1970 2461 2463 28
1971 2461 2464 28
1972 2461 2465 28
1973 2466 2467 28
1974 2466 2468 28
1975 2466 2469 28
1976 2466 2470 28
1977 2471 2472 28
1978 2471 2473 28
1979 2471 2474 28
1980 2471 2475 28
1981 2476 2477 28
1982 2476 2478 28
1983 2476 2479 28
1984 2476 2480 28
1985 2481 2482 28
1986 2481 2483 28
1987 2481 2484 28
1988 2481 2485 28
1989 2486 2487 28
1990 2486 2488 28
1991 2486 2489 28
1992 2486 2490 28
1993 2491 2492 28
1994 2491 2493 28
1995 2491 2494 28
1996 2491 2495 28
1997 2496 2497 28
1998 2496 2498 28
1999 2496 2499 28
2000 2496 2500 28
2001 2501 2502 28
2002 2501 2503 28
2003 2501 2504 28
2004 2501 2505 28
2005 2506 2507 28
2006 2506 2508 28
2007 2506 2509 28
2008 2506 2510 28
2009 2511 2512 28
2010 2511 2513 28
2011 2511 2514 28
2012 2511 2515 28
2013 2516 2517 28
2014 2516 2518 28
2015 2516 2519 28
2016 2516 2520 28
2017 2521 2522 28
2018 2521 2523 28
2019 2521 2524 28
2020 2521 2525 28
2021 2526 2527 28
2022 2526 2528 28
2023 2526 2529 28
2024 2526 2530 28
2025 2531 2532 28
2026 2531 2533 28
2027 2531 2534 28
2028 2531 2535 28
2029 2536 2537 28
2030 2536 2538 28
2031 2536 2539 28
2032 2536 2540 28
2033 2541 2542 28
2034 2541 2543 28
2035 2541 2544 28
2036 2541 2545 28
2037 2546 2547 28
2038 2546 2548 28
2039 2546 2549 28
2040 2546 2550 28
2041 2551 2552 28
2042 2551 2553 28
2043 2551 2554 28
2044 2551 2555 28
2045 2556 2557 28
2046 2556 2558 28
2047 2556 2559 28
2048 2556 2560 28
2049 2561 2562 28
2050 2561 2563 28
2051 2561 2564 28
2052 2561 2565 28
2053 2566 2567 28
2054 2566 2568 28
2055 2566 2569 28
2056 2566 2570 28
2057 2571 2572 28
2058 2571 2573 28
2059 2571 2574 28
2060 2571 2575 28
2061 2576 2577 28
2062 2576 2578 28
2063 2576 2579 28
2064 2576 2580 28
2065 2581 2582 28
2066 2581 2583 28
2067 2581 2584 28
2068 2581 2585 28
2069 2586 2587 28
2070 2586 2588 28
2071 2586 2589 28
2072 2586 2590 28
2073 2591 2592 28
2074 2591 2593 28
2075 2591 2594 28
2076 2591 2595 28
2077 2596 2597 28
2078 2596 2598 28
2079 2596 2599 28
2080 2596 2600 28
2081 2601 2602 28
2082 2601 2603 28
2083 2601 2604 28
2084 2601 2605 28
2085 2606 2607 28
2086 2606 2608 28
2087 2606 2609 28
2088 2606 2610 28
2089 2611 2612 28
2090 2611 2613 28
2091 2611 2614 28
2092 2611 2615 28
2093 2616 2617 28
2094 2616 2618 28
2095 2616 2619 28
2096 2616 2620 28
2097 2621 2622 28
2098 2621 2623 28
2099 2621 2624 28
2100 2621 2625 28
2101 2626 2627 28
2102 2626 2628 28
2103 2626 2629 28
2104 2626 2630 28
2105 2631 2632 28
2106 2631 2633 28
2107 2631 2634 28
2108 2631 2635 28
2109 2636 2637 28
2110 2636 2638 28
2111 2636 2639 28
2112 2636 2640 28
2113 2641 2642 28
2114 2641 2643 28
2115 2641 2644 28
2116 2641 2645 28
2117 2646 2647 28
2118 2646 2648 28
2119 2646 2649 28
2120 2646 2650 28
2121 2651 2652 28
2122 2651 2653 28
2123 2651 2654 28
2124 2651 2655 28
2125 2656 2657 28
2126 2656 2658 28
2127 2656 2659 28
2128 2656 2660 28
2129 2661 2662 28
2130 2661 2663 28
2131 2661 2664 28
2132 2661 2665 28
2133 2666 2667 28
2134 2666 2668 28
2135 2666 2669 28
2136 2666 2670 28
2137 2671 2672 28
2138 2671 2673 28
2139 2671 2674 28
2140 2671 2675 28
2141 2676 2677 28
2142 2676 2678 28
2143 2676 2679 28
2144 2676 2680 28
2145 2681 2682 28
2146 2681 2683 28
2147 2681 2684 28
2148 2681 2685 28
2149 2686 2687 28
2150 2686 2688 28
2151 2686 2689 28
2152 2686 2690 28
2153 2691 2692 28
2154 2691 2693 28
2155 2691 2694 28
2156 2691 2695 28
2157 2696 2697 28
2158 2696 2698 28
2159 2696 2699 28
2160 2696 2700 28
2161 2701 2702 28
2162 2701 2703 28
2163 2701 2704 28
2164 2701 2705 28
2165 2706 2707 28
2166 2706 2708 28
2167 2706 2709 28
2168 2706 2710 28
2169 2711 2712 28
2170 2711 2713 28
2171 2711 2714 28
2172 2711 2715 28
2173 2716 2717 28
2174 2716 2718 28
2175 2716 2719 28
2176 2716 2720 28
2177 2721 2722 28
2178 2721 2723 28
2179 2721 2724 28
2180 2721 2725 28
2181 2726 2727 28
2182 2726 2728 28
2183 2726 2729 28
2184 2726 2730 28
2185 2731 2732 28
2186 2731 2733 28
2187 2731 2734 28
2188 2731 2735 28
2189 2736 2737 28
2190 2736 2738 28
2191 2736 2739 28
2192 2736 2740 28
2193 2741 2742 28
2194 2741 2743 28
2195 2741 2744 28
2196 2741 2745 28
2197 2746 2747 28
2198 2746 2748 28
2199 2746 2749 28
2200 2746 2750 28
2201 2751 2752 28
2202 2751 2753 28
2203 2751 2754 28
2204 2751 2755 28
2205 2756 2757 28
2206 2756 2758 28
2207 2756 2759 28
2208 2756 2760 28
2209 2761 2762 28
2210 2761 2763 28
2211 2761 2764 28
2212 2761 2765 28
2213 2766 2767 28
2214 2766 2768 28
2215 2766 2769 28
2216 2766 2770 28
2217 2771 2772 28
2218 2771 2773 28
2219 2771 2774 28
2220 2771 2775 28
2221 2776 2777 28
2222 2776 2778 28
2223 2776 2779 28
2224 2776 2780 28
2225 2781 2782 28
2226 2781 2783 28
2227 2781 2784 28
2228 2781 2785 28
2229 2786 2787 28
2230 2786 2788 28
2231 2786 2789 28
2232 2786 2790 28
2233 2791 2792 28
2234 2791 2793 28
2235 2791 2794 28
2236 2791 2795 28
2237 2796 2797 28
2238 2796 2798 28
2239 2796 2799 28
2240 2796 2800 28
2241 2801 2802 28
2242 2801 2803 28
2243 2801 2804 28
2244 2801 2805 28
2245 2806 2807 28
2246 2806 2808 28
2247 2806 2809 28
2248 2806 2810 28
2249 2811 2812 28
2250 2811 2813 28
2251 2811 2814 28
2252 2811 2815 28
2253 2816 2817 28
2254 2816 2818 28
2255 2816 2819 28
2256 2816 2820 28
2257 2821 2822 28
2258 2821 2823 28
2259 2821 2824 28
2260 2821 2825 28
2261 2826 2827 28
2262 2826 2828 28
2263 2826 2829 28
2264 2826 2830 28
2265 2831 2832 28
2266 2831 2833 28
2267 2831 2834 28
2268 2831 2835 28
2269 2836 2837 28
2270 2836 2838 28
2271 2836 2839 28
2272 2836 2840 28
2273 2841 2842 28
2274 2841 2843 28
2275 2841 2844 28
2276 2841 2845 28
2277 2846 2847 28
2278 2846 2848 28
2279 2846 2849 28
2280 2846 2850 28
2281 2851 2852 28
2282 2851 2853 28
2283 2851 2854 28
2284 2851 2855 28
2285 2856 2857 28
2286 2856 2858 28
2287 2856 2859 28
2288 2856 2860 28
2289 2861 2862 28
2290 2861 2863 28
2291 2861 2864 28
2292 2861 2865 28
2293 2866 2867 28
2294 2866 2868 28
2295 2866 2869 28
2296 2866 2870 28
2297 2871 2872 28
2298 2871 2873 28
2299 2871 2874 28
2300 2871 2875 28
2301 2876 2877 28
2302 2876 2878 28
2303 2876 2879 28
2304 2876 2880 28
2305 2881 2882 28
2306 2881 2883 28
2307 2881 2884 28
2308 2881 2885 28
2309 2886 2887 28
2310 2886 2888 28
2311 2886 2889 28
2312 2886 2890 28
2313 2891 2892 28
2314 2891 2893 28
2315 2891 2894 28
2316 2891 2895 28
2317 2896 2897 28
2318 2896 2898 28
2319 2896 2899 28
2320 2896 2900 28
2321 2901 2902 28
2322 2901 2903 28
2323 2901 2904 28
2324 2901 2905 28
2325 2906 2907 28
2326 2906 2908 28
2327 2906 2909 28
2328 2906 2910 28
2329 2911 2912 28
2330 2911 2913 28
2331 2911 2914 28
2332 2911 2915 28
2333 2916 2917 28
2334 2916 2918 28
2335 2916 2919 28
2336 2916 2920 28
2337 2921 2922 28
2338 2921 2923 28
2339 2921 2924 28
2340 2921 2925 28
2341 2926 2927 28
2342 2926 2928 28
2343 2926 2929 28
2344 2926 2930 28
2345 2931 2932 28
2346 2931 2933 28
2347 2931 2934 28
2348 2931 2935 28
2349 2936 2937 28
2350 2936 2938 28
2351 2936 2939 28
2352 2936 2940 28
2353 2941 2942 28
2354 2941 2943 28
2355 2941 2944 28
2356 2941 2945 28
2357 2946 2947 28
2358 2946 2948 28
2359 2946 2949 28
2360 2946 2950 28
2361 2951 2952 28
2362 2951 2953 28
2363 2951 2954 28
2364 2951 2955 28
2365 2956 2957 28
2366 2956 2958 28
2367 2956 2959 28
2368 2956 2960 28
2369 2961 2962 28
2370 2961 2963 28
2371 2961 2964 28
2372 2961 2965 28
2373 2966 2967 28
2374 2966 2968 28
2375 2966 2969 28
2376 2966 2970 28
2377 2971 2972 28
2378 2971 2973 28
2379 2971 2974 28
2380 2971 2975 28
2381 2976 2977 28
2382 2976 2978 28
2383 2976 2979 28
2384 2976 2980 28
2385 2981 2982 28
2386 2981 2983 28
2387 2981 2984 28
2388 2981 2985 28
2389 2986 2987 28
2390 2986 2988 28
2391 2986 2989 28
2392 2986 2990 28
2393 2991 2992 28
2394 2991 2993 28
2395 2991 2994 28
2396 2991 2995 28
2397 2996 2997 28
2398 2996 2998 28
2399 2996 2999 28
2400 2996 3000 28
2401 3001 3002 28
2402 3001 3003 28
2403 3001 3004 28
2404 3001 3005 28
2405 3006 3007 28
2406 3006 3008 28
2407 3006 3009 28
2408 3006 3010 28
2409 3011 3012 28
2410 3011 3013 28
2411 3011 3014 28
2412 3011 3015 28
2413 3016 3017 28
2414 3016 3018 28
2415 3016 3019 28
2416 3016 3020 28
2417 3021 3022 28
2418 3021 3023 28
2419 3021 3024 28
2420 3021 3025 28
2421 3026 3027 28
2422 3026 3028 28
2423 3026 3029 28
2424 3026 3030 28
2425 3031 3032 28
2426 3031 3033 28
2427 3031 3034 28
2428 3031 3035 28
2429 3036 3037 28
2430 3036 3038 28
2431 3036 3039 28
2432 3036 3040 28
2433 3041 3042 28
2434 3041 3043 28
2435 3041 3044 28
2436 3041 3045 28
2437 3046 3047 28
2438 3046 3048 28
2439 3046 3049 28
2440 3046 3050 28
2441 3051 3052 28
2442 3051 3053 28
2443 3051 3054 28
2444 3051 3055 28
2445 3056 3057 28
2446 3056 3058 28
2447 3056 3059 28
2448 3056 3060 28
2449 3061 3062 28
2450 3061 3063 28
2451 3061 3064 28
2452 3061 3065 28
2453 3066 3067 28
2454 3066 3068 28
2455 3066 3069 28
2456 3066 3070 28
2457 3071 3072 28
2458 3071 3073 28
2459 3071 3074 28
2460 3071 3075 28
2461 3076 3077 28
2462 3076 3078 28
2463 3076 3079 28
2464 3076 3080 28
2465 3081 3082 28
2466 3081 3083 28
2467 3081 3084 28
2468 3081 3085 28
2469 3086 3087 28
2470 3086 3088 28
2471 3086 3089 28
2472 3086 3090 28
2473 3091 3092 28
2474 3091 3093 28
2475 3091 3094 28
2476 3091 3095 28
2477 3096 3097 28
2478 3096 3098 28
2479 3096 3099 28
2480 3096 3100 28
2481 3101 3102 28
2482 3101 3103 28
2483 3101 3104 28
2484 3101 3105 28
2485 3106 3107 28
2486 3106 3108 28
2487 3106 3109 28
2488 3106 3110 28
2489 3111 3112 28
2490 3111 3113 28
2491 3111 3114 28
2492 3111 3115 28
2493 3116 3117 28
2494 3116 3118 28
2495 3116 3119 28
2496 3116 3120 28
2497 3121 3122 28
2498 3121 3123 28
2499 3121 3124 28
2500 3121 3125 28
2501 3126 3127 28
2502 3126 3128 28
2503 3126 3129 28
2504 3126 3130 28
2505 3131 3132 28
2506 3131 3133 28
2507 3131 3134 28
2508 3131 3135 28
2509 3136 3137 28
2510 3136 3138 28
2511 3136 3139 28
2512 3136 3140 28
2513 3141 3142 28
2514 3141 3143 28
2515 3141 3144 28
2516 3141 3145 28
2517 3146 3147 28
2518 3146 3148 28
2519 3146 3149 28
2520 3146 3150 28
2521 3151 3152 28
2522 3151 3153 28
2523 3151 3154 28
2524 3151 3155 28
2525 3156 3157 28
2526 3156 3158 28
2527 3156 3159 28
2528 3156 3160 28
2529 3161 3162 28
2530 3161 3163 28
2531 3161 3164 28
2532 3161 3165 28
2533 3166 3167 28
2534 3166 3168 28
2535 3166 3169 28
2536 3166 3170 28
2537 3171 3172 28
2538 3171 3173 28
2539 3171 3174 28
2540 3171 3175 28
2541 3176 3177 28
2542 3176 3178 28
2543 3176 3179 28
2544 3176 3180 28
2545 3181 3182 28
2546 3181 3183 28
2547 3181 3184 28
2548 3181 3185 28
2549 3186 3187 28
2550 3186 3188 28
2551 3186 3189 28
2552 3186 3190 28
2553 3191 3192 28
2554 3191 3193 28
2555 3191 3194 28
2556 3191 3195 28
2557 3196 3197 28
2558 3196 3198 28
2559 3196 3199 28
2560 3196 3200 28
2561 3201 3202 28
2562 3201 3203 28
2563 3201 3204 28
2564 3201 3205 28
2565 3206 3207 28
2566 3206 3208 28
2567 3206 3209 28
2568 3206 3210 28
2569 3211 3212 28
2570 3211 3213 28
2571 3211 3214 28
2572 3211 3215 28
2573 3216 3217 28
2574 3216 3218 28
2575 3216 3219 28
2576 3216 3220 28
2577 3221 3222 28
2578 3221 3223 28
2579 3221 3224 28
2580 3221 3225 28
2581 3226 3227 28
2582 3226 3228 28
2583 3226 3229 28
2584 3226 3230 28
2585 3231 3232 28
2586 3231 3233 28
2587 3231 3234 28
2588 3231 3235 28
2589 3236 3237 28
2590 3236 3238 28
2591 3236 3239 28
2592 3236 3240 28
2593 3241 3242 28
2594 3241 3243 28
2595 3241 3244 28
2596 3241 3245 28
2597 3246 3247 28
2598 3246 3248 28
2599 3246 3249 28
2600 3246 3250 28
2601 3251 3252 28
2602 3251 3253 28
2603 3251 3254 28
2604 3251 3255 28
2605 3256 3257 28
2606 3256 3258 28
2607 3256 3259 28
2608 3256 3260 28
2609 3261 3262 28
2610 3261 3263 28
2611 3261 3264 28
2612 3261 3265 28
2613 3266 3267 28
2614 3266 3268 28
2615 3266 3269 28
2616 3266 3270 28
2617 3271 3272 28
2618 3271 3273 28
2619 3271 3274 28
2620 3271 3275 28
2621 3276 3277 28
2622 3276 3278 28
2623 3276 3279 28
2624 3276 3280 28
2625 3281 3282 28
2626 3281 3283 28
2627 3281 3284 28
2628 3281 3285 28
2629 3286 3287 28
2630 3286 3288 28
2631 3286 3289 28
2632 3286 3290 28
2633 3291 3292 28
2634 3291 3293 28
2635 3291 3294 28
2636 3291 3295 28
2637 3296 3297 28
2638 3296 3298 28
2639 3296 3299 28
2640 3296 3300 28
2641 3301 3302 28
2642 3301 3303 28
2643 3301 3304 28
2644 3301 3305 28
2645 3306 3307 28
2646 3306 3308 28
2647 3306 3309 28
2648 3306 3310 28
2649 3311 3312 28
2650 3311 3313 28
2651 3311 3314 28
2652 3311 3315 28
2653 3316 3317 28
2654 3316 3318 28
2655 3316 3319 28
2656 3316 3320 28
2657 3321 3322 28
2658 3321 3323 28
2659 3321 3324 28
2660 3321 3325 28
2661 3326 3327 28
2662 3326 3328 28
2663 3326 3329 28
2664 3326 3330 28
2665 3331 3332 28
2666 3331 3333 28
2667 3331 3334 28
2668 3331 3335 28
2669 3336 3337 28
2670 3336 3338 28
2671 3336 3339 28
2672 3336 3340 28
2673 3341 3342 28
2674 3341 3343 28
2675 3341 3344 28
2676 3341 3345 28
2677 3346 3347 28
2678 3346 3348 28
2679 3346 3349 28
2680 3346 3350 28
2681 3351 3352 28
2682 3351 3353 28
2683 3351 3354 28
2684 3351 3355 28
2685 3356 3357 28
2686 3356 3358 28
2687 3356 3359 28
2688 3356 3360 28
2689 3361 3362 28
2690 3361 3363 28
2691 3361 3364 28
2692 3361 3365 28
2693 3366 3367 28
2694 3366 3368 28
2695 3366 3369 28
2696 3366 3370 28
2697 3371 3372 28
2698 3371 3373 28
2699 3371 3374 28
2700 3371 3375 28
2701 3376 3377 28
2702 3376 3378 28
2703 3376 3379 28
2704 3376 3380 28
2705 3381 3382 28
2706 3381 3383 28
2707 3381 3384 28
2708 3381 3385 28
2709 3386 3387 28
2710 3386 3388 28
2711 3386 3389 28
2712 3386 3390 28
2713 3391 3392 28
2714 3391 3393 28
2715 3391 3394 28
2716 3391 3395 28
2717 3396 3397 28
2718 3396 3398 28
2719 3396 3399 28
2720 3396 3400 28
2721 3401 3402 28
2722 3401 3403 28
2723 3401 3404 28
2724 3401 3405 28
2725 3406 3407 28
2726 3406 3408 28
2727 3406 3409 28
2728 3406 3410 28
2729 3411 3412 28
2730 3411 3413 28
2731 3411 3414 28
2732 3411 3415 28
2733 3416 3417 28
2734 3416 3418 28
2735 3416 3419 28
2736 3416 3420 28
2737 3421 3422 28
2738 3421 3423 28
2739 3421 3424 28
2740 3421 3425 28
2741 3426 3427 28
2742 3426 3428 28
2743 3426 3429 28
2744 3426 3430 28
2745 3431 3432 28
2746 3431 3433 28
2747 3431 3434 28
2748 3431 3435 28
2749 3436 3437 28
2750 3436 3438 28
2751 3436 3439 28
2752 3436 3440 28
2753 3441 3442 28
2754 3441 3443 28
2755 3441 3444 28
2756 3441 3445 28
2757 3446 3447 28
2758 3446 3448 28
2759 3446 3449 28
2760 3446 3450 28
2761 3451 3452 28
2762 3451 3453 28
2763 3451 3454 28
2764 3451 3455 28
2765 3456 3457 28
2766 3456 3458 28
2767 3456 3459 28
2768 3456 3460 28
2769 3461 3462 28
2770 3461 3463 28
2771 3461 3464 28
2772 3461 3465 28
2773 3466 3467 28
2774 3466 3468 28
2775 3466 3469 28
2776 3466 3470 28
2777 3471 3472 28
2778 3471 3473 28
2779 3471 3474 28
2780 3471 3475 28
2781 3476 3477 28
2782 3476 3478 28
2783 3476 3479 28
2784 3476 3480 28
2785 3481 3482 28
2786 3481 3483 28
2787 3481 3484 28
2788 3481 3485 28
2789 3486 3487 28
2790 3486 3488 28
2791 3486 3489 28
2792 3486 3490 28
2793 3491 3492 28
2794 3491 3493 28
2795 3491 3494 28
2796 3491 3495 28
2797 3496 3497 28
2798 3496 3498 28
2799 3496 3499 28
2800 3496 3500 28
2801 3501 3502 28
2802 3501 3503 28
2803 3501 3504 28
2804 3501 3505 28
2805 3506 3507 28
2806 3506 3508 28
2807 3506 3509 28
2808 3506 3510 28
2809 3511 3512 28
2810 3511 3513 28
2811 3511 3514 28
2812 3511 3515 28
2813 3516 3517 28
2814 3516 3518 28
2815 3516 3519 28
2816 3516 3520 28
2817 3521 3522 28
2818 3521 3523 28
2819 3521 3524 28
2820 3521 3525 28
2821 3526 3527 28
2822 3526 3528 28
2823 3526 3529 28
2824 3526 3530 28
2825 3531 3532 28
2826 3531 3533 28
2827 3531 3534 28
2828 3531 3535 28
2829 3536 3537 28
2830 3536 3538 28
2831 3536 3539 28
2832 3536 3540 28
2833 3541 3542 28
2834 3541 3543 28
2835 3541 3544 28
2836 3541 3545 28
2837 3546 3547 28
2838 3546 3548 28
2839 3546 3549 28
2840 3546 3550 28
2841 3551 3552 28
2842 3551 3553 28
2843 3551 3554 28
2844 3551 3555 28
2845 3556 3557 28
2846 3556 3558 28
2847 3556 3559 28
2848 3556 3560 28
2849 3561 3562 28
2850 3561 3563 28
2851 3561 3564 28
2852 3561 3565 28
2853 3566 3567 28
2854 3566 3568 28
2855 3566 3569 28
2856 3566 3570 28
2857 3571 3572 28
2858 3571 3573 28
2859 3571 3574 28
2860 3571 3575 28
2861 3576 3577 28
2862 3576 3578 28
2863 3576 3579 28
2864 3576 3580 28
2865 3581 3582 28
2866 3581 3583 28
2867 3581 3584 28
2868 3581 3585 28
2869 3586 3587 28
2870 3586 3588 28
2871 3586 3589 28
2872 3586 3590 28
2873 3591 3592 28
2874 3591 3593 28
2875 3591 3594 28
2876 3591 3595 28
2877 3596 3597 28
2878 3596 3598 28
2879 3596 3599 28
2880 3596 3600 28
2881 3601 3602 28
2882 3601 3603 28
2883 3601 3604 28
2884 3601 3605 28
2885 3606 3607 28
2886 3606 3608 28
2887 3606 3609 28
2888 3606 3610 28
2889 3611 3612 28
2890 3611 3613 28
2891 3611 3614 28
2892 3611 3615 28
2893 3616 3617 28
2894 3616 3618 28
2895 3616 3619 28
2896 3616 3620 28
2897 3621 3622 28
2898 3621 3623 28
2899 3621 3624 28
2900 3621 3625 28
2901 3626 3627 28
2902 3626 3628 28
2903 3626 3629 28
2904 3626 3630 28
2905 3631 3632 28
2906 3631 3633 28
2907 3631 3634 28
2908 3631 3635 28
2909 3636 3637 28
2910 3636 3638 28
2911 3636 3639 28
2912 3636 3640 28
2913 3641 3642 28
2914 3641 3643 28
2915 3641 3644 28
2916 3641 3645 28
2917 3646 3647 28
2918 3646 3648 28
2919 3646 3649 28
2920 3646 3650 28
2921 3651 3652 28
2922 3651 3653 28
2923 3651 3654 28
2924 3651 3655 28
2925 3656 3657 28
2926 3656 3658 28
2927 3656 3659 28
2928 3656 3660 28
2929 3661 3662 28
2930 3661 3663 28
2931 3661 3664 28
2932 3661 3665 28
2933 3666 3667 28
2934 3666 3668 28
2935 3666 3669 28
2936 3666 3670 28
2937 3671 3672 28
2938 3671 3673 28
2939 3671 3674 28
2940 3671 3675 28
2941 3676 3677 28
2942 3676 3678 28
2943 3676 3679 28
2944 3676 3680 28
2945 3681 3682 28
2946 3681 3683 28
2947 3681 3684 28
2948 3681 3685 28
2949 3686 3687 28
2950 3686 3688 28
2951 3686 3689 28
2952 3686 3690 28
2953 3691 3692 28
2954 3691 3693 28
2955 3691 3694 28
2956 3691 3695 28
2957 3696 3697 28
2958 3696 3698 28
2959 3696 3699 28
2960 3696 3700 28
2961 3701 3702 28
2962 3701 3703 28
2963 3701 3704 28
2964 3701 3705 28
2965 3706 3707 28
2966 3706 3708 28
2967 3706 3709 28
2968 3706 3710 28
2969 3711 3712 28
2970 3711 3713 28
2971 3711 3714 28
2972 3711 3715 28
2973 3716 3717 28
2974 3716 3718 28
2975 3716 3719 28
2976 3716 3720 28
2977 3721 3722 28
2978 3721 3723 28
2979 3721 3724 28
2980 3721 3725 28
2981 3726 3727 28
2982 3726 3728 28
2983 3726 3729 28
2984 3726 3730 28
2985 3731 3732 28
2986 3731 3733 28
2987 3731 3734 28
2988 3731 3735 28
2989 3736 3737 28
2990 3736 3738 28
2991 3736 3739 28
2992 3736 3740 28
2993 3741 3742 28
2994 3741 3743 28
2995 3741 3744 28
2996 3741 3745 28
2997 3746 3747 28
2998 3746 3748 28
2999 3746 3749 28
3000 3746 3750 28
3001 3751 3752 28
3002 3751 3753 28
3003 3751 3754 28
3004 3751 3755 28
3005 3756 3757 28
3006 3756 3758 28
3007 3756 3759 28
3008 3756 3760 28
3009 3761 3762 28
3010 3761 3763 28
3011 3761 3764 28
3012 3761 3765 28
3013 3766 3767 28
3014 3766 3768 28
3015 3766 3769 28
3016 3766 3770 28
3017 3771 3772 28
3018 3771 3773 28
3019 3771 3774 28
3020 3771 3775 28
3021 3776 3777 28
3022 3776 3778 28
3023 3776 3779 28
3024 3776 3780 28
3025 3781 3782 28
3026 3781 3783 28
3027 3781 3784 28
3028 3781 3785 28
3029 3786 3787 28
3030 3786 3788 28
3031 3786 3789 28
3032 3786 3790 28
3033 3791 3792 28
3034 3791 3793 28
3035 3791 3794 28
3036 3791 3795 28
3037 3796 3797 28
3038 3796 3798 28
3039 3796 3799 28
3040 3796 3800 28
3041 3801 3802 28
3042 3801 3803 28
3043 3801 3804 28
3044 3801 3805 28
3045 3806 3807 28
3046 3806 3808 28
3047 3806 3809 28
3048 3806 3810 28
3049 3811 3812 28
3050 3811 3813 28
3051 3811 3814 28
3052 3811 3815 28
3053 3816 3817 28
3054 3816 3818 28
3055 3816 3819 28
3056 3816 3820 28
3057 3821 3822 28
3058 3821 3823 28
3059 3821 3824 28
3060 3821 3825 28
3061 3826 3827 28
3062 3826 3828 28
3063 3826 3829 28
3064 3826 3830 28
3065 3831 3832 28
3066 3831 3833 28
3067 3831 3834 28
3068 3831 3835 28
3069 3836 3837 28
3070 3836 3838 28
3071 3836 3839 28
3072 3836 3840 28
3073 3841 3842 28
3074 3841 3843 28
3075 3841 3844 28
3076 3841 3845 28
3077 3846 3847 28
3078 3846 3848 28
3079 3846 3849 28
3080 3846 3850 28
3081 3851 3852 28
3082 3851 3853 28
3083 3851 3854 28
3084 3851 3855 28
3085 3856 3857 28
3086 3856 3858 28
3087 3856 3859 28
3088 3856 3860 28
3089 3861 3862 28
3090 3861 3863 28
3091 3861 3864 28
3092 3861 3865 28
3093 3866 3867 28
3094 3866 3868 28
3095 3866 3869 28
3096 3866 3870 28
3097 3871 3872 28
3098 3871 3873 28
3099 3871 3874 28
3100 3871 3875 28
3101 3876 3877 28
3102 3876 3878 28
3103 3876 3879 28
3104 3876 3880 28
3105 3881 3882 28
3106 3881 3883 28
3107 3881 3884 28
3108 3881 3885 28
3109 3886 3887 28
3110 3886 3888 28
3111 3886 3889 28
3112 3886 3890 28
3113 3891 3892 28
3114 3891 3893 28
3115 3891 3894 28
3116 3891 3895 28
3117 3896 3897 28
3118 3896 3898 28
3119 3896 3899 28
3120 3896 3900 28
3121 3901 3902 28
3122 3901 3903 28
3123 3901 3904 28
3124 3901 3905 28
3125 3906 3907 28
3126 3906 3908 28
3127 3906 3909 28
3128 3906 3910 28
3129 3911 3912 28
3130 3911 3913 28
3131 3911 3914 28
3132 3911 3915 28
3133 3916 3917 28
3134 3916 3918 28
3135 3916 3919 28
3136 3916 3920 28
3137 3921 3922 28
3138 3921 3923 28
3139 3921 3924 28
3140 3921 3925 28
3141 3926 3927 28
3142 3926 3928 28
3143 3926 3929 28
3144 3926 3930 28
3145 3931 3932 28
3146 3931 3933 28
3147 3931 3934 28
3148 3931 3935 28
3149 3936 3937 28
3150 3936 3938 28
3151 3936 3939 28
3152 3936 3940 28
3153 3941 3942 28
3154 3941 3943 28
3155 3941 3944 28
3156 3941 3945 28
3157 3946 3947 28
3158 3946 3948 28
3159 3946 3949 28
3160 3946 3950 28
3161 3951 3952 28
3162 3951 3953 28
3163 3951 3954 28
3164 3951 3955 28
3165 3956 3957 28
3166 3956 3958 28
3167 3956 3959 28
3168 3956 3960 28
3169 3961 3962 28
3170 3961 3963 28
3171 3961 3964 28
3172 3961 3965 28
3173 3966 3967 28
3174 3966 3968 28
3175 3966 3969 28
3176 3966 3970 28
3177 3971 3972 28
3178 3971 3973 28
3179 3971 3974 28
3180 3971 3975 28
3181 3976 3977 28
3182 3976 3978 28
3183 3976 3979 28
3184 3976 3980 28
3185 3981 3982 28
3186 3981 3983 28
3187 3981 3984 28
3188 3981 3985 28
3189 3986 3987 28
3190 3986 3988 28
3191 3986 3989 28
3192 3986 3990 28
3193 3991 3992 28
3194 3991 3993 28
3195 3991 3994 28
3196 3991 3995 28
3197 3996 3997 28
3198 3996 3998 28
3199 3996 3999 28
3200 3996 4000 28
3201 4001 4002 28
3202 4001 4003 28
3203 4001 4004 28
3204 4001 4005 28
3205 4006 4007 28
3206 4006 4008 28
3207 4006 4009 28
3208 4006 4010 28
3209 4011 4012 28
3210 4011 4013 28
3211 4011 4014 28
3212 4011 4015 28
3213 4016 4017 28
3214 4016 4018 28
3215 4016 4019 28
3216 4016 4020 28
3217 4021 4022 28
3218 4021 4023 28
3219 4021 4024 28
3220 4021 4025 28
3221 4026 4027 28
3222 4026 4028 28
3223 4026 4029 28
3224 4026 4030 28
3225 4031 4032 28
3226 4031 4033 28
3227 4031 4034 28
3228 4031 4035 28
3229 4036 4037 28
3230 4036 4038 28
3231 4036 4039 28
3232 4036 4040 28
3233 4041 4042 28
3234 4041 4043 28
3235 4041 4044 28
3236 4041 4045 28
3237 4046 4047 28
3238 4046 4048 28
3239 4046 4049 28
3240 4046 4050 28
3241 4051 4052 28
3242 4051 4053 28
3243 4051 4054 28
3244 4051 4055 28
3245 4056 4057 28
3246 4056 4058 28
3247 4056 4059 28
3248 4056 4060 28
3249 4061 4062 28
3250 4061 4063 28
3251 4061 4064 28
3252 4061 4065 28
3253 4066 4067 28
3254 4066 4068 28
3255 4066 4069 28
3256 4066 4070 28
3257 4071 4072 28
3258 4071 4073 28
3259 4071 4074 28
3260 4071 4075 28
3261 4076 4077 28
3262 4076 4078 28
3263 4076 4079 28
3264 4076 4080 28
3265 4081 4082 28
3266 4081 4083 28
3267 4081 4084 28
3268 4081 4085 28
3269 4086 4087 28
3270 4086 4088 28
3271 4086 4089 28
3272 4086 4090 28
3273 4091 4092 28
3274 4091 4093 28
3275 4091 4094 28
3276 4091 4095 28
3277 4096 4097 28
3278 4096 4098 28
3279 4096 4099 28
3280 4096 4100 28
3281 4101 4102 28
3282 4101 4103 28
3283 4101 4104 28
3284 4101 4105 28
3285 4106 4107 28
3286 4106 4108 28
3287 4106 4109 28
3288 4106 4110 28
3289 4111 4112 28
3290 4111 4113 28
3291 4111 4114 28
3292 4111 4115 28
3293 4116 4117 28
3294 4116 4118 28
3295 4116 4119 28
3296 4116 4120 28
3297 4121 4122 28
3298 4121 4123 28
3299 4121 4124 28
3300 4121 4125 28
3301 4126 4127 28
3302 4126 4128 28
3303 4126 4129 28
3304 4126 4130 28
3305 4131 4132 28
3306 4131 4133 28
3307 4131 4134 28
3308 4131 4135 28
3309 4136 4137 28
3310 4136 4138 28
3311 4136 4139 28
3312 4136 4140 28
3313 4141 4142 28
3314 4141 4143 28
3315 4141 4144 28
3316 4141 4145 28
3317 4146 4147 28
3318 4146 4148 28
3319 4146 4149 28
3320 4146 4150 28
3321 4151 4152 28
3322 4151 4153 28
3323 4151 4154 28
3324 4151 4155 28
3325 4156 4157 28
3326 4156 4158 28
3327 4156 4159 28
3328 4156 4160 28
3329 4161 4162 28
3330 4161 4163 28
3331 4161 4164 28
3332 4161 4165 28
3333 4166 4167 28
3334 4166 4168 28
3335 4166 4169 28
3336 4166 4170 28
3337 4171 4172 28
3338 4171 4173 28
3339 4171 4174 28
3340 4171 4175 28
3341 4176 4177 28
3342 4176 4178 28
3343 4176 4179 28
3344 4176 4180 28
3345 4181 4182 28
3346 4181 4183 28
3347 4181 4184 28
3348 4181 4185 28
3349 4186 4187 28
3350 4186 4188 28
3351 4186 4189 28
3352 4186 4190 28
3353 4191 4192 28
3354 4191 4193 28
3355 4191 4194 28
3356 4191 4195 28
3357 4196 4197 28
3358 4196 4198 28
3359 4196 4199 28
3360 4196 4200 28
3361 4201 4202 28
3362 4201 4203 28
3363 4201 4204 28
3364 4201 4205 28
3365 4206 4207 28
3366 4206 4208 28
3367 4206 4209 28
3368 4206 4210 28
3369 4211 4212 28
3370 4211 4213 28
3371 4211 4214 28
3372 4211 4215 28
3373 4216 4217 28
3374 4216 4218 28
3375 4216 4219 28
3376 4216 4220 28
3377 4221 4222 28
3378 4221 4223 28
3379 4221 4224 28
3380 4221 4225 28
3381 4226 4227 28
3382 4226 4228 28
3383 4226 4229 28
3384 4226 4230 28
3385 4231 4232 28
3386 4231 4233 28
3387 4231 4234 28
3388 4231 4235 28
3389 4236 4237 28
3390 4236 4238 28
3391 4236 4239 28
3392 4236 4240 28
3393 4241 4242 28
3394 4241 4243 28
3395 4241 4244 28
3396 4241 4245 28
3397 4246 4247 28
3398 4246 4248 28
3399 4246 4249 28
3400 4246 4250 28
3401 4251 4252 28
3402 4251 4253 28
3403 4251 4254 28
3404 4251 4255 28
3405 4256 4257 28
3406 4256 4258 28
3407 4256 4259 28
3408 4256 4260 28
3409 4261 4262 28
3410 4261 4263 28
3411 4261 4264 28
3412 4261 4265 28
3413 4266 4267 28
3414 4266 4268 28
3415 4266 4269 28
3416 4266 4270 28
3417 4271 4272 28
3418 4271 4273 28
3419 4271 4274 28
3420 4271 4275 28
3421 4276 4277 28
3422 4276 4278 28
3423 4276 4279 28
3424 4276 4280 28
3425 4281 4282 28
3426 4281 4283 28
3427 4281 4284 28
3428 4281 4285 28
3429 4286 4287 28
3430 4286 4288 28
3431 4286 4289 28
3432 4286 4290 28
3433 4291 4292 28
3434 4291 4293 28
3435 4291 4294 28
3436 4291 4295 28
3437 4296 4297 28
3438 4296 4298 28
3439 4296 4299 28
3440 4296 4300 28
3441 4301 4302 28
3442 4301 4303 28
3443 4301 4304 28
3444 4301 4305 28
3445 4306 4307 28
3446 4306 4308 28
3447 4306 4309 28
3448 4306 4310 28
3449 4311 4312 28
3450 4311 4313 28
3451 4311 4314 28
3452 4311 4315 28
3453 4316 4317 28
3454 4316 4318 28
3455 4316 4319 28
3456 4316 4320 28
3457 4321 4322 28
3458 4321 4323 28
3459 4321 4324 28
3460 4321 4325 28
3461 4326 4327 28
3462 4326 4328 28
3463 4326 4329 28
3464 4326 4330 28
3465 4331 4332 28
3466 4331 4333 28
3467 4331 4334 28
3468 4331 4335 28
3469 4336 4337 28
3470 4336 4338 28
3471 4336 4339 28
3472 4336 4340 28
3473 4341 4342 28
3474 4341 4343 28
3475 4341 4344 28
3476 4341 4345 28
3477 4346 4347 28
3478 4346 4348 28
3479 4346 4349 28
3480 4346 4350 28
3481 4351 4352 28
3482 4351 4353 28
3483 4351 4354 28
3484 4351 4355 28
3485 4356 4357 28
3486 4356 4358 28
3487 4356 4359 28
3488 4356 4360 28
3489 4361 4362 28
3490 4361 4363 28
3491 4361 4364 28
3492 4361 4365 28
3493 4366 4367 28
3494 4366 4368 28
3495 4366 4369 28
3496 4366 4370 28
3497 4371 4372 28
3498 4371 4373 28
3499 4371 4374 28
3500 4371 4375 28
3501 4376 4377 28
3502 4376 4378 28
3503 4376 4379 28
3504 4376 4380 28
3505 4381 4382 28
3506 4381 4383 28
3507 4381 4384 28
3508 4381 4385 28
3509 4386 4387 28
3510 4386 4388 28
3511 4386 4389 28
3512 4386 4390 28
3513 4391 4392 28
3514 4391 4393 28
3515 4391 4394 28
3516 4391 4395 28
3517 4396 4397 28
3518 4396 4398 28
3519 4396 4399 28
3520 4396 4400 28
3521 4401 4402 28
3522 4401 4403 28
3523 4401 4404 28
3524 4401 4405 28
3525 4406 4407 28
3526 4406 4408 28
3527 4406 4409 28
3528 4406 4410 28
3529 4411 4412 28
3530 4411 4413 28
3531 4411 4414 28
3532 4411 4415 28
3533 4416 4417 28
3534 4416 4418 28
3535 4416 4419 28
3536 4416 4420 28
3537 4421 4422 28
3538 4421 4423 28
3539 4421 4424 28
3540 4421 4425 28
3541 4426 4427 28
3542 4426 4428 28
3543 4426 4429 28
3544 4426 4430 28
3545 4431 4432 28
3546 4431 4433 28
3547 4431 4434 28
3548 4431 4435 28
3549 4436 4437 28
3550 4436 4438 28
3551 4436 4439 28
3552 4436 4440 28
3553 4441 4442 28
3554 4441 4443 28
3555 4441 4444 28
3556 4441 4445 28
3557 4446 4447 28
3558 4446 4448 28
3559 4446 4449 28
3560 4446 4450 28
3561 4451 4452 28
3562 4451 4453 28
3563 4451 4454 28
3564 4451 4455 28
3565 4456 4457 28
3566 4456 4458 28
3567 4456 4459 28
3568 4456 4460 28
3569 4461 4462 28
3570 4461 4463 28
3571 4461 4464 28
3572 4461 4465 28
3573 4466 4467 28
3574 4466 4468 28
3575 4466 4469 28
3576 4466 4470 28
3577 4471 4472 28
3578 4471 4473 28
3579 4471 4474 28
3580 4471 4475 28
3581 4476 4477 28
3582 4476 4478 28
3583 4476 4479 28
3584 4476 4480 28
3585 4481 4482 28
3586 4481 4483 28
3587 4481 4484 28
3588 4481 4485 28
3589 4486 4487 28
3590 4486 4488 28
3591 4486 4489 28
3592 4486 4490 28
3593 4491 4492 28
3594 4491 4493 28
3595 4491 4494 28
3596 4491 4495 28
3597 4496 4497 28
3598 4496 4498 28
3599 4496 4499 28
3600 4496 4500 28
3601 4501 4502 28
3602 4501 4503 28
3603 4501 4504 28
3604 4501 4505 28
3605 4506 4507 28
3606 4506 4508 28
3607 4506 4509 28
3608 4506 4510 28
3609 4511 4512 28
3610 4511 4513 28
3611 4511 4514 28
3612 4511 4515 28
3613 4516 4517 28
3614 4516 4518 28
3615 4516 4519 28
3616 4516 4520 28
3617 4521 4522 28
3618 4521 4523 28
3619 4521 4524 28
3620 4521 4525 28
3621 4526 4527 28
3622 4526 4528 28
3623 4526 4529 28
3624 4526 4530 28
3625 4531 4532 28
3626 4531 4533 28
3627 4531 4534 28
3628 4531 4535 28
3629 4536 4537 28
3630 4536 4538 28
3631 4536 4539 28
3632 4536 4540 28
3633 4541 4542 28
3634 4541 4543 28
3635 4541 4544 28
3636 4541 4545 28
3637 4546 4547 28
3638 4546 4548 28
3639 4546 4549 28
3640 4546 4550 28
3641 4551 4552 28
3642 4551 4553 28
3643 4551 4554 28
3644 4551 4555 28
3645 4556 4557 28
3646 4556 4558 28
3647 4556 4559 28
3648 4556 4560 28
3649 4561 4562 28
3650 4561 4563 28
3651 4561 4564 28
3652 4561 4565 28
3653 4566 4567 28
3654 4566 4568 28
3655 4566 4569 28
3656 4566 4570 28
3657 4571 4572 28
3658 4571 4573 28
3659 4571 4574 28
3660 4571 4575 28
3661 4576 4577 28
3662 4576 4578 28
3663 4576 4579 28
3664 4576 4580 28
3665 4581 4582 28
3666 4581 4583 28
3667 4581 4584 28
3668 4581 4585 28
3669 4586 4587 28
3670 4586 4588 28
3671 4586 4589 28
3672 4586 4590 28
3673 4591 4592 28
3674 4591 4593 28
3675 4591 4594 28
3676 4591 4595 28
3677 4596 4597 28
3678 4596 4598 28
3679 4596 4599 28
3680 4596 4600 28
3681 4601 4602 28
3682 4601 4603 28
3683 4601 4604 28
3684 4601 4605 28
3685 4606 4607 28
3686 4606 4608 28
3687 4606 4609 28
3688 4606 4610 28
3689 4611 4612 28
3690 4611 4613 28
3691 4611 4614 28
3692 4611 4615 28
3693 4616 4617 28
3694 4616 4618 28
3695 4616 4619 28
3696 4616 4620 28
3697 4621 4622 28
3698 4621 4623 28
3699 4621 4624 28
3700 4621 4625 28
3701 4626 4627 28
3702 4626 4628 28
3703 4626 4629 28
3704 4626 4630 28
3705 4631 4632 28
3706 4631 4633 28
3707 4631 4634 28
3708 4631 4635 28
3709 4636 4637 28
3710 4636 4638 28
3711 4636 4639 28
3712 4636 4640 28
3713 4641 4642 28
3714 4641 4643 28
3715 4641 4644 28
3716 4641 4645 28
3717 4646 4647 28
3718 4646 4648 28
3719 4646 4649 28
3720 4646 4650 28
3721 4651 4652 28
3722 4651 4653 28
3723 4651 4654 28
3724 4651 4655 28
3725 4656 4657 28
3726 4656 4658 28
3727 4656 4659 28
3728 4656 4660 28
3729 4661 4662 28
3730 4661 4663 28
3731 4661 4664 28
3732 4661 4665 28
3733 4666 4667 28
3734 4666 4668 28
3735 4666 4669 28
3736 4666 4670 28
3737 4671 4672 28
3738 4671 4673 28
3739 4671 4674 28
3740 4671 4675 28
3741 4676 4677 28
3742 4676 4678 28
3743 4676 4679 28
3744 4676 4680 28
3745 4681 4682 28
3746 4681 4683 28
3747 4681 4684 28
3748 4681 4685 28
3749 4686 4687 28
3750 4686 4688 28
3751 4686 4689 28
3752 4686 4690 28
3753 4691 4692 28
3754 4691 4693 28
3755 4691 4694 28
3756 4691 4695 28
3757 4696 4697 28
3758 4696 4698 28
3759 4696 4699 28
3760 4696 4700 28
3761 4701 4702 28
3762 4701 4703 28
3763 4701 4704 28
3764 4701 4705 28
3765 4706 4707 28
3766 4706 4708 28
3767 4706 4709 28
3768 4706 4710 28
3769 4711 4712 28
3770 4711 4713 28
3771 4711 4714 28
3772 4711 4715 28
3773 4716 4717 28
3774 4716 4718 28
3775 4716 4719 28
3776 4716 4720 28
3777 4721 4722 28
3778 4721 4723 28
3779 4721 4724 28
3780 4721 4725 28
3781 4726 4727 28
3782 4726 4728 28
3783 4726 4729 28
3784 4726 4730 28
3785 4731 4732 28
3786 4731 4733 28
3787 4731 4734 28
3788 4731 4735 28
3789 4736 4737 28
3790 4736 4738 28
3791 4736 4739 28
3792 4736 4740 28
3793 4741 4742 28
3794 4741 4743 28
3795 4741 4744 28
3796 4741 4745 28
3797 4746 4747 28
3798 4746 4748 28
3799 4746 4749 28
3800 4746 4750 28
3801 4751 4752 28
3802 4751 4753 28
3803 4751 4754 28
3804 4751 4755 28
3805 4756 4757 28
3806 4756 4758 28
3807 4756 4759 28
3808 4756 4760 28
3809 4761 4762 28
3810 4761 4763 28
3811 4761 4764 28
3812 4761 4765 28
3813 4766 4767 28
3814 4766 4768 28
3815 4766 4769 28
3816 4766 4770 28
3817 4771 4772 28
3818 4771 4773 28
3819 4771 4774 28
3820 4771 4775 28
3821 4776 4777 28
3822 4776 4778 28
3823 4776 4779 28
3824 4776 4780 28
3825 4781 4782 28
3826 4781 4783 28
3827 4781 4784 28
3828 4781 4785 28
3829 4786 4787 28
3830 4786 4788 28
3831 4786 4789 28
3832 4786 4790 28
3833 4791 4792 28
3834 4791 4793 28
3835 4791 4794 28
3836 4791 4795 28
3837 4796 4797 28
3838 4796 4798 28
3839 4796 4799 28
3840 4796 4800 28
3841 4801 4802 28
3842 4801 4803 28
3843 4801 4804 28
3844 4801 4805 28
3845 4806 4807 28
3846 4806 4808 28
3847 4806 4809 28
3848 4806 4810 28
3849 4811 4812 28
3850 4811 4813 28
3851 4811 4814 28
3852 4811 4815 28
3853 4816 4817 28
3854 4816 4818 28
3855 4816 4819 28
3856 4816 4820 28
3857 4821 4822 28
3858 4821 4823 28
3859 4821 4824 28
3860 4821 4825 28
3861 4826 4827 28
3862 4826 4828 28
3863 4826 4829 28
3864 4826 4830 28
3865 4831 4832 28
3866 4831 4833 28
3867 4831 4834 28
3868 4831 4835 28
3869 4836 4837 28
3870 4836 4838 28
3871 4836 4839 28
3872 4836 4840 28
3873 4841 4842 28
3874 4841 4843 28
3875 4841 4844 28
3876 4841 4845 28
3877 4846 4847 28
3878 4846 4848 28
3879 4846 4849 28
3880 4846 4850 28
3881 4851 4852 28
3882 4851 4853 28
3883 4851 4854 28
3884 4851 4855 28
3885 4856 4857 28
3886 4856 4858 28
3887 4856 4859 28
3888 4856 4860 28
3889 4861 4862 28
3890 4861 4863 28
3891 4861 4864 28
3892 4861 4865 28
3893 4866 4867 28
3894 4866 4868 28
3895 4866 4869 28
3896 4866 4870 28
3897 4871 4872 28
3898 4871 4873 28
3899 4871 4874 28
3900 4871 4875 28
3901 4876 4877 28
3902 4876 4878 28
3903 4876 4879 28
3904 4876 4880 28
3905 4881 4882 28
3906 4881 4883 28
3907 4881 4884 28
3908 4881 4885 28
3909 4886 4887 28
3910 4886 4888 28
3911 4886 4889 28
3912 4886 4890 28
3913 4891 4892 28
3914 4891 4893 28
3915 4891 4894 28
3916 4891 4895 28
3917 4896 4897 28
3918 4896 4898 28
3919 4896 4899 28
3920 4896 4900 28
3921 4901 4902 28
3922 4901 4903 28
3923 4901 4904 28
3924 4901 4905 28
3925 4906 4907 28
3926 4906 4908 28
3927 4906 4909 28
3928 4906 4910 28
3929 4911 4912 28
3930 4911 4913 28
3931 4911 4914 28
3932 4911 4915 28
3933 4916 4917 28
3934 4916 4918 28
3935 4916 4919 28
3936 4916 4920 28
3937 4921 4922 28
3938 4921 4923 28
3939 4921 4924 28
3940 4921 4925 28
3941 4926 4927 28
3942 4926 4928 28
3943 4926 4929 28
3944 4926 4930 28
3945 4931 4932 28
3946 4931 4933 28
3947 4931 4934 28
3948 4931 4935 28
3949 4936 4937 28
3950 4936 4938 28
3951 4936 4939 28
3952 4936 4940 28
3953 4941 4942 28
3954 4941 4943 28
3955 4941 4944 28
3956 4941 4945 28
3957 4946 4947 28
3958 4946 4948 28
3959 4946 4949 28
3960 4946 4950 28
3961 4951 4952 28
3962 4951 4953 28
3963 4951 4954 28
3964 4951 4955 28
3965 4956 4957 28
3966 4956 4958 28
3967 4956 4959 28
3968 4956 4960 28
3969 4961 4962 28
3970 4961 4963 28
3971 4961 4964 28
3972 4961 4965 28
3973 4966 4967 28
3974 4966 4968 28
3975 4966 4969 28
3976 4966 4970 28
3977 4971 4972 28
3978 4971 4973 28
3979 4971 4974 28
3980 4971 4975 28
3981 4976 4977 28
3982 4976 4978 28
3983 4976 4979 28
3984 4976 4980 28
3985 4981 4982 28
3986 4981 4983 28
3987 4981 4984 28
3988 4981 4985 28
3989 4986 4987 28
3990 4986 4988 28
3991 4986 4989 28
3992 4986 4990 28
3993 4991 4992 28
3994 4991 4993 28
3995 4991 4994 28
3996 4991 4995 28
3997 4996 4997 28
3998 4996 4998 28
3999 4996 4999 28
4000 4996 5000 28
4001 5001 5002 28
4002 5001 5003 28
4003 5001 5004 28
4004 5001 5005 28
4005 5006 5007 28
4006 5006 5008 28
4007 5006 5009 28
4008 5006 5010 28
4009 5011 5012 28
4010 5011 5013 28
4011 5011 5014 28
4012 5011 5015 28
4013 5016 5017 28
4014 5016 5018 28
4015 5016 5019 28
4016 5016 5020 28
4017 5021 5022 28
4018 5021 5023 28
4019 5021 5024 28
4020 5021 5025 28
4021 5026 5027 28
4022 5026 5028 28
4023 5026 5029 28
4024 5026 5030 28
4025 5031 5032 28
4026 5031 5033 28
4027 5031 5034 28
4028 5031 5035 28
4029 5036 5037 28
4030 5036 5038 28
4031 5036 5039 28
4032 5036 5040 28
4033 5041 5042 28
4034 5041 5043 28
4035 5041 5044 28
4036 5041 5045 28
4037 5046 5047 28
4038 5046 5048 28
4039 5046 5049 28
4040 5046 5050 28
4041 5051 5052 28
4042 5051 5053 28
4043 5051 5054 28
4044 5051 5055 28
4045 5056 5057 28
4046 5056 5058 28
4047 5056 5059 28
4048 5056 5060 28
4049 5061 5062 28
4050 5061 5063 28
4051 5061 5064 28
4052 5061 5065 28
4053 5066 5067 28
4054 5066 5068 28
4055 5066 5069 28
4056 5066 5070 28
4057 5071 5072 28
4058 5071 5073 28
4059 5071 5074 28
4060 5071 5075 28
4061 5076 5077 28
4062 5076 5078 28
4063 5076 5079 28
4064 5076 5080 28
4065 5081 5082 28
4066 5081 5083 28
4067 5081 5084 28
4068 5081 5085 28
4069 5086 5087 28
4070 5086 5088 28
4071 5086 5089 28
4072 5086 5090 28
4073 5091 5092 28
4074 5091 5093 28
4075 5091 5094 28
4076 5091 5095 28
4077 5096 5097 28
4078 5096 5098 28
4079 5096 5099 28
4080 5096 5100 28
4081 5101 5102 28
4082 5101 5103 28
4083 5101 5104 28
4084 5101 5105 28
4085 5106 5107 28
4086 5106 5108 28
4087 5106 5109 28
4088 5106 5110 28
4089 5111 5112 28
4090 5111 5113 28
4091 5111 5114 28
4092 5111 5115 28
4093 5116 5117 28
4094 5116 5118 28
4095 5116 5119 28
4096 5116 5120 28
4097 5121 5122 28
4098 5121 5123 28
4099 5121 5124 28
4100 5121 5125 28
4101 5126 5127 28
4102 5126 5128 28
4103 5126 5129 28
4104 5126 5130 28
4105 5131 5132 28
4106 5131 5133 28
4107 5131 5134 28
4108 5131 5135 28
4109 5136 5137 28
4110 5136 5138 28
4111 5136 5139 28
4112 5136 5140 28
4113 5141 5142 28
4114 5141 5143 28
4115 5141 5144 28
4116 5141 5145 28
4117 5146 5147 28
4118 5146 5148 28
4119 5146 5149 28
4120 5146 5150 28
4121 5151 5152 28
4122 5151 5153 28
4123 5151 5154 28
4124 5151 5155 28
4125 5156 5157 28
4126 5156 5158 28
4127 5156 5159 28
4128 5156 5160 28
4129 5161 5162 28
4130 5161 5163 28
4131 5161 5164 28
4132 5161 5165 28
4133 5166 5167 28
4134 5166 5168 28
4135 5166 5169 28
4136 5166 5170 28
4137 5171 5172 28
4138 5171 5173 28
4139 5171 5174 28
4140 5171 5175 28
4141 5176 5177 28
4142 5176 5178 28
4143 5176 5179 28
4144 5176 5180 28
4145 5181 5182 28
4146 5181 5183 28
4147 5181 5184 28
4148 5181 5185 28
4149 5186 5187 28
4150 5186 5188 28
4151 5186 5189 28
4152 5186 5190 28
4153 5191 5192 28
4154 5191 5193 28
4155 5191 5194 28
4156 5191 5195 28
4157 5196 5197 28
4158 5196 5198 28
4159 5196 5199 28
4160 5196 5200 28
4161 5201 5202 28
4162 5201 5203 28
4163 5201 5204 28
4164 5201 5205 28
4165 5206 5207 28
4166 5206 5208 28
4167 5206 5209 28
4168 5206 5210 28
4169 5211 5212 28
4170 5211 5213 28
4171 5211 5214 28
4172 5211 5215 28
4173 5216 5217 28
4174 5216 5218 28
4175 5216 5219 28
4176 5216 5220 28
4177 5221 5222 28
4178 5221 5223 28
4179 5221 5224 28
4180 5221 5225 28
4181 5226 5227 28
4182 5226 5228 28
4183 5226 5229 28
4184 5226 5230 28
4185 5231 5232 28
4186 5231 5233 28
4187 5231 5234 28
4188 5231 5235 28
4189 5236 5237 28
4190 5236 5238 28
4191 5236 5239 28
4192 5236 5240 28
4193 5241 5242 28
4194 5241 5243 28
4195 5241 5244 28
4196 5241 5245 28
4197 5246 5247 28
4198 5246 5248 28
4199 5246 5249 28
4200 5246 5250 28
4201 5251 5252 28
4202 5251 5253 28
4203 5251 5254 28
4204 5251 5255 28
4205 5256 5257 28
4206 5256 5258 28
4207 5256 5259 28
4208 5256 5260 28
4209 5261 5262 28
4210 5261 5263 28
4211 5261 5264 28
4212 5261 5265 28
4213 5266 5267 28
4214 5266 5268 28
4215 5266 5269 28
4216 5266 5270 28
4217 5271 5272 28
4218 5271 5273 28
4219 5271 5274 28
4220 5271 5275 28
4221 5276 5277 28
4222 5276 5278 28
4223 5276 5279 28
4224 5276 5280 28
4225 5281 5282 28
4226 5281 5283 28
4227 5281 5284 28
4228 5281 5285 28
4229 5286 5287 28
4230 5286 5288 28
4231 5286 5289 28
4232 5286 5290 28
4233 5291 5292 28
4234 5291 5293 28
4235 5291 5294 28
4236 5291 5295 28
4237 5296 5297 28
4238 5296 5298 28
4239 5296 5299 28
4240 5296 5300 28
4241 5301 5302 28
4242 5301 5303 28
4243 5301 5304 28
4244 5301 5305 28
4245 5306 5307 28
4246 5306 5308 28
4247 5306 5309 28
4248 5306 5310 28
4249 5311 5312 28
4250 5311 5313 28
4251 5311 5314 28
4252 5311 5315 28
4253 5316 5317 28
4254 5316 5318 28
4255 5316 5319 28
4256 5316 5320 28
4257 5321 5322 28
4258 5321 5323 28
4259 5321 5324 28
4260 5321 5325 28
4261 5326 5327 28
4262 5326 5328 28
4263 5326 5329 28
4264 5326 5330 28
4265 5331 5332 28
4266 5331 5333 28
4267 5331 5334 28
4268 5331 5335 28
4269 5336 5337 28
4270 5336 5338 28
4271 5336 5339 28
4272 5336 5340 28
4273 5341 5342 28
4274 5341 5343 28
4275 5341 5344 28
4276 5341 5345 28
4277 5346 5347 28
4278 5346 5348 28
4279 5346 5349 28
4280 5346 5350 28
4281 5351 5352 28
4282 5351 5353 28
4283 5351 5354 28
4284 5351 5355 28
4285 5356 5357 28
4286 5356 5358 28
4287 5356 5359 28
4288 5356 5360 28
4289 5361 5362 28
4290 5361 5363 28
4291 5361 5364 28
4292 5361 5365 28
4293 5366 5367 28
4294 5366 5368 28
4295 5366 5369 28
4296 5366 5370 28
4297 5371 5372 28
4298 5371 5373 28
4299 5371 5374 28
4300 5371 5375 28
4301 5376 5377 28
4302 5376 5378 28
4303 5376 5379 28
4304 5376 5380 28
4305 5381 5382 28
4306 5381 5383 28
4307 5381 5384 28
4308 5381 5385 28
4309 5386 5387 28
4310 5386 5388 28
4311 5386 5389 28
4312 5386 5390 28
4313 5391 5392 28
4314 5391 5393 28
4315 5391 5394 28
4316 5391 5395 28
4317 5396 5397 28
4318 5396 5398 28
4319 5396 5399 28
4320 5396 5400 28
4321 5401 5402 28
4322 5401 5403 28
4323 5401 5404 28
4324 5401 5405 28
4325 5406 5407 28
4326 5406 5408 28
4327 5406 5409 28
4328 5406 5410 28
4329 5411 5412 28
4330 5411 5413 28
4331 5411 5414 28
4332 5411 5415 28
4333 5416 5417 28
4334 5416 5418 28
4335 5416 5419 28
4336 5416 5420 28
4337 5421 5422 28
4338 5421 5423 28
4339 5421 5424 28
4340 5421 5425 28
4341 5426 5427 28
4342 5426 5428 28
4343 5426 5429 28
4344 5426 5430 28
4345 5431 5432 28
4346 5431 5433 28
4347 5431 5434 28
4348 5431 5435 28
4349 5436 5437 28
4350 5436 5438 28
4351 5436 5439 28
4352 5436 5440 28
4353 5441 5442 28
4354 5441 5443 28
4355 5441 5444 28
4356 5441 5445 28
4357 5446 5447 28
4358 5446 5448 28
4359 5446 5449 28
4360 5446 5450 28
4361 5451 5452 28
4362 5451 5453 28
4363 5451 5454 28
4364 5451 5455 28
4365 5456 5457 28
4366 5456 5458 28
4367 5456 5459 28
4368 5456 5460 28
4369 5461 5462 28
4370 5461 5463 28
4371 5461 5464 28
4372 5461 5465 28
4373 5466 5467 28
4374 5466 5468 28
4375 5466 5469 28
4376 5466 5470 28
4377 5471 5472 28
4378 5471 5473 28
4379 5471 5474 28
4380 5471 5475 28
4381 5476 5477 28
4382 5476 5478 28
4383 5476 5479 28
4384 5476 5480 28
4385 5481 5482 28
4386 5481 5483 28
4387 5481 5484 28
4388 5481 5485 28
4389 5486 5487 28
4390 5486 5488 28
4391 5486 5489 28
4392 5486 5490 28
4393 5491 5492 28
4394 5491 5493 28
4395 5491 5494 28
4396 5491 5495 28
4397 5496 5497 28
4398 5496 5498 28
4399 5496 5499 28
4400 5496 5500 28
4401 5501 5502 28
4402 5501 5503 28
4403 5501 5504 28
4404 5501 5505 28
4405 5506 5507 28
4406 5506 5508 28
4407 5506 5509 28
4408 5506 5510 28
4409 5511 5512 28
4410 5511 5513 28
4411 5511 5514 28
4412 5511 5515 28
4413 5516 5517 28
4414 5516 5518 28
4415 5516 5519 28
4416 5516 5520 28
4417 5521 5522 28
4418 5521 5523 28
4419 5521 5524 28
4420 5521 5525 28
4421 5526 5527 28
4422 5526 5528 28
4423 5526 5529 28
4424 5526 5530 28
4425 5531 5532 28
4426 5531 5533 28
4427 5531 5534 28
4428 5531 5535 28
4429 5536 5537 28
4430 5536 5538 28
4431 5536 5539 28
4432 5536 5540 28
4433 5541 5542 28
4434 5541 5543 28
4435 5541 5544 28
4436 5541 5545 28
4437 5546 5547 28
4438 5546 5548 28
4439 5546 5549 28
4440 5546 5550 28
4441 5551 5552 28
4442 5551 5553 28
4443 5551 5554 28
4444 5551 5555 28
4445 5556 5557 28
4446 5556 5558 28
4447 5556 5559 28
4448 5556 5560 28
4449 5561 5562 28
4450 5561 5563 28
4451 5561 5564 28
4452 5561 5565 28
4453 5566 5567 28
4454 5566 5568 28
4455 5566 5569 28
4456 5566 5570 28
4457 5571 5572 28
4458 5571 5573 28
4459 5571 5574 28
4460 5571 5575 28
4461 5576 5577 28
4462 5576 5578 28
4463 5576 5579 28
4464 5576 5580 28
4465 5581 5582 28
4466 5581 5583 28
4467 5581 5584 28
4468 5581 5585 28
4469 5586 5587 28
4470 5586 5588 28
4471 5586 5589 28
4472 5586 5590 28
4473 5591 5592 28
4474 5591 5593 28
4475 5591 5594 28
4476 5591 5595 28
4477 5596 5597 28
4478 5596 5598 28
4479 5596 5599 28
4480 5596 5600 28
4481 5601 5602 28
4482 5601 5603 28
4483 5601 5604 28
4484 5601 5605 28
4485 5606 5607 28
4486 5606 5608 28
4487 5606 5609 28
4488 5606 5610 28
4489 5611 5612 28
4490 5611 5613 28
4491 5611 5614 28
4492 5611 5615 28
4493 5616 5617 28
4494 5616 5618 28
4495 5616 5619 28
4496 5616 5620 28
4497 5621 5622 28
4498 5621 5623 28
4499 5621 5624 28
4500 5621 5625 28
4501 5626 5627 28
4502 5626 5628 28
4503 5626 5629 28
4504 5626 5630 28
4505 5631 5632 28
4506 5631 5633 28
4507 5631 5634 28
4508 5631 5635 28
4509 5636 5637 28
4510 5636 5638 28
4511 5636 5639 28
4512 5636 5640 28
4513 5641 5642 28
4514 5641 5643 28
4515 5641 5644 28
4516 5641 5645 28
4517 5646 5647 28
4518 5646 5648 28
4519 5646 5649 28
4520 5646 5650 28
4521 5651 5652 28
4522 5651 5653 28
4523 5651 5654 28
4524 5651 5655 28
4525 5656 5657 28
4526 5656 5658 28
4527 5656 5659 28
4528 5656 5660 28
4529 5661 5662 28
4530 5661 5663 28
4531 5661 5664 28
4532 5661 5665 28
4533 5666 5667 28
4534 5666 5668 28
4535 5666 5669 28
4536 5666 5670 28
4537 5671 5672 28
4538 5671 5673 28
4539 5671 5674 28
4540 5671 5675 28
4541 5676 5677 28
4542 5676 5678 28
4543 5676 5679 28
4544 5676 5680 28
4545 5681 5682 28
4546 5681 5683 28
4547 5681 5684 28
4548 5681 5685 28
4549 5686 5687 28
4550 5686 5688 28
4551 5686 5689 28
4552 5686 5690 28
4553 5691 5692 28
4554 5691 5693 28
4555 5691 5694 28
4556 5691 5695 28
4557 5696 5697 28
4558 5696 5698 28
4559 5696 5699 28
4560 5696 5700 28
4561 5701 5702 28
4562 5701 5703 28
4563 5701 5704 28
4564 5701 5705 28
4565 5706 5707 28
4566 5706 5708 28
4567 5706 5709 28
4568 5706 5710 28
4569 5711 5712 28
4570 5711 5713 28
4571 5711 5714 28
4572 5711 5715 28
4573 5716 5717 28
4574 5716 5718 28
4575 5716 5719 28
4576 5716 5720 28
4577 5721 5722 28
4578 5721 5723 28
4579 5721 5724 28
4580 5721 5725 28
4581 5726 5727 28
4582 5726 5728 28
4583 5726 5729 28
4584 5726 5730 28
4585 5731 5732 28
4586 5731 5733 28
4587 5731 5734 28
4588 5731 5735 28
4589 5736 5737 28
4590 5736 5738 28
4591 5736 5739 28
4592 5736 5740 28
4593 5741 5742 28
4594 5741 5743 28
4595 5741 5744 28
4596 5741 5745 28
4597 5746 5747 28
4598 5746 5748 28
4599 5746 5749 28
4600 5746 5750 28
4601 5751 5752 28
4602 5751 5753 28
4603 5751 5754 28
4604 5751 5755 28
4605 5756 5757 28
4606 5756 5758 28
4607 5756 5759 28
4608 5756 5760 28
4609 5761 5762 28
4610 5761 5763 28
4611 5761 5764 28
4612 5761 5765 28
4613 5766 5767 28
4614 5766 5768 28
4615 5766 5769 28
4616 5766 5770 28
4617 5771 5772 28
4618 5771 5773 28
4619 5771 5774 28
4620 5771 5775 28
4621 5776 5777 28
4622 5776 5778 28
4623 5776 5779 28
4624 5776 5780 28
4625 5781 5782 28
4626 5781 5783 28
4627 5781 5784 28
4628 5781 5785 28
4629 5786 5787 28
4630 5786 5788 28
4631 5786 5789 28
4632 5786 5790 28
4633 5791 5792 28
4634 5791 5793 28
4635 5791 5794 28
4636 5791 5795 28
4637 5796 5797 28
4638 5796 5798 28
4639 5796 5799 28
4640 5796 5800 28
4641 5801 5802 28
4642 5801 5803 28
4643 5801 5804 28
4644 5801 5805 28
4645 5806 5807 28
4646 5806 5808 28
4647 5806 5809 28
4648 5806 5810 28
4649 5811 5812 28
4650 5811 5813 28
4651 5811 5814 28
4652 5811 5815 28
4653 5816 5817 28
4654 5816 5818 28
4655 5816 5819 28
4656 5816 5820 28
4657 5821 5822 28
4658 5821 5823 28
4659 5821 5824 28
4660 5821 5825 28
4661 5826 5827 28
4662 5826 5828 28
4663 5826 5829 28
4664 5826 5830 28
4665 5831 5832 28
4666 5831 5833 28
4667 5831 5834 28
4668 5831 5835 28
4669 5836 5837 28
4670 5836 5838 28
4671 5836 5839 28
4672 5836 5840 28
4673 5841 5842 28
4674 5841 5843 28
4675 5841 5844 28
4676 5841 5845 28
4677 5846 5847 28
4678 5846 5848 28
4679 5846 5849 28
4680 5846 5850 28
4681 5851 5852 28
4682 5851 5853 28
4683 5851 5854 28
4684 5851 5855 28
4685 5856 5857 28
4686 5856 5858 28
4687 5856 5859 28
4688 5856 5860 28
4689 5861 5862 28
4690 5861 5863 28
4691 5861 5864 28
4692 5861 5865 28
4693 5866 5867 28
4694 5866 5868 28
4695 5866 5869 28
4696 5866 5870 28
4697 5871 5872 28
4698 5871 5873 28
4699 5871 5874 28
4700 5871 5875 28
4701 5876 5877 28
4702 5876 5878 28
4703 5876 5879 28
4704 5876 5880 28
4705 5881 5882 28
4706 5881 5883 28
4707 5881 5884 28
4708 5881 5885 28
4709 5886 5887 28
4710 5886 5888 28
4711 5886 5889 28
4712 5886 5890 28
4713 5891 5892 28
4714 5891 5893 28
4715 5891 5894 28
4716 5891 5895 28
4717 5896 5897 28
4718 5896 5898 28
4719 5896 5899 28
4720 5896 5900 28
4721 5901 5902 28
4722 5901 5903 28
4723 5901 5904 28
4724 5901 5905 28
4725 5906 5907 28
4726 5906 5908 28
4727 5906 5909 28
4728 5906 5910 28
4729 5911 5912 28
4730 5911 5913 28
4731 5911 5914 28
4732 5911 5915 28
4733 5916 5917 28
4734 5916 5918 28
4735 5916 5919 28
4736 5916 5920 28
4737 5921 5922 28
4738 5921 5923 28
4739 5921 5924 28
4740 5921 5925 28
4741 5926 5927 28
4742 5926 5928 28
4743 5926 5929 28
4744 5926 5930 28
4745 5931 5932 28
4746 5931 5933 28
4747 5931 5934 28
4748 5931 5935 28
4749 5936 5937 28
4750 5936 5938 28
4751 5936 5939 28
4752 5936 5940 28
4753 5941 5942 28
4754 5941 5943 28
4755 5941 5944 28
4756 5941 5945 28
4757 5946 5947 28
4758 5946 5948 28
4759 5946 5949 28
4760 5946 5950 28
4761 5951 5952 28
4762 5951 5953 28
4763 5951 5954 28
4764 5951 5955 28
4765 5956 5957 28
4766 5956 5958 28
4767 5956 5959 28
4768 5956 5960 28
4769 5961 5962 28
4770 5961 5963 28
4771 5961 5964 28
4772 5961 5965 28
4773 5966 5967 28
4774 5966 5968 28
4775 5966 5969 28
4776 5966 5970 28
4777 5971 5972 28
4778 5971 5973 28
4779 5971 5974 28
4780 5971 5975 28
4781 5976 5977 28
4782 5976 5978 28
4783 5976 5979 28
4784 5976 5980 28
4785 5981 5982 28
4786 5981 5983 28
4787 5981 5984 28
4788 5981 5985 28
4789 5986 5987 28
4790 5986 5988 28
4791 5986 5989 28
4792 5986 5990 28
4793 5991 5992 28
4794 5991 5993 28
4795 5991 5994 28
4796 5991 5995 28
4797 5996 5997 28
4798 5996 5998 28
4799 5996 5999 28
4800 5996 6000 28
4801 6001 6002 28
4802 6001 6003 28
4803 6001 6004 28
4804 6001 6005 28
4805 6006 6007 28
4806 6006 6008 28
4807 6006 6009 28
4808 6006 6010 28
4809 6011 6012 28
4810 6011 6013 28
4811 6011 6014 28
4812 6011 6015 28
4813 6016 6017 28
4814 6016 6018 28
4815 6016 6019 28
4816 6016 6020 28
4817 6021 6022 28
4818 6021 6023 28
4819 6021 6024 28
4820 6021 6025 28
4821 6026 6027 28
4822 6026 6028 28
4823 6026 6029 28
4824 6026 6030 28
4825 6031 6032 28
4826 6031 6033 28
4827 6031 6034 28
4828 6031 6035 28
4829 6036 6037 28
4830 6036 6038 28
4831 6036 6039 28
4832 6036 6040 28
4833 6041 6042 28
4834 6041 6043 28
4835 6041 6044 28
4836 6041 6045 28
4837 6046 6047 28
4838 6046 6048 28
4839 6046 6049 28
4840 6046 6050 28
4841 6051 6052 28
4842 6051 6053 28
4843 6051 6054 28
4844 6051 6055 28
4845 6056 6057 28
4846 6056 6058 28
4847 6056 6059 28
4848 6056 6060 28
4849 6061 6062 28
4850 6061 6063 28
4851 6061 6064 28
4852 6061 6065 28
4853 6066 6067 28
4854 6066 6068 28
4855 6066 6069 28
4856 6066 6070 28
4857 6071 6072 28
4858 6071 6073 28
4859 6071 6074 28
4860 6071 6075 28
4861 6076 6077 28
4862 6076 6078 28
4863 6076 6079 28
4864 6076 6080 28
4865 6081 6082 28
4866 6081 6083 28
4867 6081 6084 28
4868 6081 6085 28
4869 6086 6087 28
4870 6086 6088 28
4871 6086 6089 28
4872 6086 6090 28
4873 6091 6092 28
4874 6091 6093 28
4875 6091 6094 28
4876 6091 6095 28
4877 6096 6097 28
4878 6096 6098 28
4879 6096 6099 28
4880 6096 6100 28
4881 6101 6102 28
4882 6101 6103 28
4883 6101 6104 28
4884 6101 6105 28
4885 6106 6107 28
4886 6106 6108 28
4887 6106 6109 28
4888 6106 6110 28
4889 6111 6112 28
4890 6111 6113 28
4891 6111 6114 28
4892 6111 6115 28
4893 6116 6117 28
4894 6116 6118 28
4895 6116 6119 28
4896 6116 6120 28
4897 6121 6122 28
4898 6121 6123 28
4899 6121 6124 28
4900 6121 6125 28
4901 6126 6127 28
4902 6126 6128 28
4903 6126 6129 28
4904 6126 6130 28
4905 6131 6132 28
4906 6131 6133 28
4907 6131 6134 28
4908 6131 6135 28
4909 6136 6137 28
4910 6136 6138 28
4911 6136 6139 28
4912 6136 6140 28
4913 6141 6142 28
4914 6141 6143 28
4915 6141 6144 28
4916 6141 6145 28
4917 6146 6147 28
4918 6146 6148 28
4919 6146 6149 28
4920 6146 6150 28
4921 6151 6152 28
4922 6151 6153 28
4923 6151 6154 28
4924 6151 6155 28
4925 6156 6157 28
4926 6156 6158 28
4927 6156 6159 28
4928 6156 6160 28
4929 6161 6162 28
4930 6161 6163 28
4931 6161 6164 28
4932 6161 6165 28
4933 6166 6167 28
4934 6166 6168 28
4935 6166 6169 28
4936 6166 6170 28
4937 6171 6172 28
4938 6171 6173 28
4939 6171 6174 28
4940 6171 6175 28
4941 6176 6177 28
4942 6176 6178 28
4943 6176 6179 28
4944 6176 6180 28
4945 6181 6182 28
4946 6181 6183 28
4947 6181 6184 28
4948 6181 6185 28
4949 6186 6187 28
4950 6186 6188 28
4951 6186 6189 28
4952 6186 6190 28
4953 6191 6192 28
4954 6191 6193 28
4955 6191 6194 28
4956 6191 6195 28
4957 6196 6197 28
4958 6196 6198 28
4959 6196 6199 28
4960 6196 6200 28
4961 6201 6202 28
4962 6201 6203 28
4963 6201 6204 28
4964 6201 6205 28
4965 6206 6207 28
4966 6206 6208 28
4967 6206 6209 28
4968 6206 6210 28
4969 6211 6212 28
4970 6211 6213 28
4971 6211 6214 28
4972 6211 6215 28
4973 6216 6217 28
4974 6216 6218 28
4975 6216 6219 28
4976 6216 6220 28
4977 6221 6222 28
4978 6221 6223 28
4979 6221 6224 28
4980 6221 6225 28
4981 6226 6227 28
4982 6226 6228 28
4983 6226 6229 28
4984 6226 6230 28
4985 6231 6232 28
4986 6231 6233 28
4987 6231 6234 28
4988 6231 6235 28
4989 6236 6237 28
4990 6236 6238 28
4991 6236 6239 28
4992 6236 6240 28
4993 6241 6242 28
4994 6241 6243 28
4995 6241 6244 28
4996 6241 6245 28
4997 6246 6247 28
4998 6246 6248 28
4999 6246 6249 28
5000 6246 6250 28
5001 6251 6252 28
5002 6251 6253 28
5003 6251 6254 28
5004 6251 6255 28
5005 6256 6257 28
5006 6256 6258 28
5007 6256 6259 28
5008 6256 6260 28
5009 6261 6262 28
5010 6261 6263 28
5011 6261 6264 28
5012 6261 6265 28
5013 6266 6267 28
5014 6266 6268 28
5015 6266 6269 28
5016 6266 6270 28
5017 6271 6272 28
5018 6271 6273 28
5019 6271 6274 28
5020 6271 6275 28
5021 6276 6277 28
5022 6276 6278 28
5023 6276 6279 28
5024 6276 6280 28
5025 6281 6282 28
5026 6281 6283 28
5027 6281 6284 28
5028 6281 6285 28
5029 6286 6287 28
5030 6286 6288 28
5031 6286 6289 28
5032 6286 6290 28
5033 6291 6292 28
5034 6291 6293 28
5035 6291 6294 28
5036 6291 6295 28
5037 6296 6297 28
5038 6296 6298 28
5039 6296 6299 28
5040 6296 6300 28
5041 6301 6302 28
5042 6301 6303 28
5043 6301 6304 28
5044 6301 6305 28
5045 6306 6307 28
5046 6306 6308 28
5047 6306 6309 28
5048 6306 6310 28
5049 6311 6312 28
5050 6311 6313 28
5051 6311 6314 28
5052 6311 6315 28
5053 6316 6317 28
5054 6316 6318 28
5055 6316 6319 28
5056 6316 6320 28
5057 6321 6322 28
5058 6321 6323 28
5059 6321 6324 28
5060 6321 6325 28
5061 6326 6327 28
5062 6326 6328 28
5063 6326 6329 28
5064 6326 6330 28
5065 6331 6332 28
5066 6331 6333 28
5067 6331 6334 28
5068 6331 6335 28
5069 6336 6337 28
5070 6336 6338 28
5071 6336 6339 28
5072 6336 6340 28
5073 6341 6342 28
5074 6341 6343 28
5075 6341 6344 28
5076 6341 6345 28
5077 6346 6347 28
5078 6346 6348 28
5079 6346 6349 28
5080 6346 6350 28
5081 6351 6352 28
5082 6351 6353 28
5083 6351 6354 28
5084 6351 6355 28
5085 6356 6357 28
5086 6356 6358 28
5087 6356 6359 28
5088 6356 6360 28
5089 6361 6362 28
5090 6361 6363 28
5091 6361 6364 28
5092 6361 6365 28
5093 6366 6367 28
5094 6366 6368 28
5095 6366 6369 28
5096 6366 6370 28
5097 6371 6372 28
5098 6371 6373 28
5099 6371 6374 28
5100 6371 6375 28
5101 6376 6377 28
5102 6376 6378 28
5103 6376 6379 28
5104 6376 6380 28
5105 6381 6382 28
5106 6381 6383 28
5107 6381 6384 28
5108 6381 6385 28
5109 6386 6387 28
5110 6386 6388 28
5111 6386 6389 28
5112 6386 6390 28
5113 6391 6392 28
5114 6391 6393 28
5115 6391 6394 28
5116 6391 6395 28
5117 6396 6397 28
5118 6396 6398 28
5119 6396 6399 28
5120 6396 6400 28
5121 6401 6402 28
5122 6401 6403 28
5123 6401 6404 28
5124 6401 6405 28
5125 6406 6407 28
5126 6406 6408 28
5127 6406 6409 28
5128 6406 6410 28
5129 6411 6412 28
5130 6411 6413 28
5131 6411 6414 28
5132 6411 6415 28
5133 6416 6417 28
5134 6416 6418 28
5135 6416 6419 28
5136 6416 6420 28
5137 6421 6422 28
5138 6421 6423 28
5139 6421 6424 28
5140 6421 6425 28
5141 6426 6427 28
5142 6426 6428 28
5143 6426 6429 28
5144 6426 6430 28
5145 6431 6432 28
5146 6431 6433 28
5147 6431 6434 28
5148 6431 6435 28
5149 6436 6437 28
5150 6436 6438 28
5151 6436 6439 28
5152 6436 6440 28
5153 6441 6442 28
5154 6441 6443 28
5155 6441 6444 28
5156 6441 6445 28
5157 6446 6447 28
5158 6446 6448 28
5159 6446 6449 28
5160 6446 6450 28
5161 6451 6452 28
5162 6451 6453 28
5163 6451 6454 28
5164 6451 6455 28
5165 6456 6457 28
5166 6456 6458 28
5167 6456 6459 28
5168 6456 6460 28
5169 6461 6462 28
5170 6461 6463 28
5171 6461 6464 28
5172 6461 6465 28
5173 6466 6467 28
5174 6466 6468 28
5175 6466 6469 28
5176 6466 6470 28
5177 6471 6472 28
5178 6471 6473 28
5179 6471 6474 28
5180 6471 6475 28
5181 6476 6477 28
5182 6476 6478 28
5183 6476 6479 28
5184 6476 6480 28
5185 6481 6482 28
5186 6481 6483 28
5187 6481 6484 28
5188 6481 6485 28
5189 6486 6487 28
5190 6486 6488 28
5191 6486 6489 28
5192 6486 6490 28
5193 6491 6492 28
5194 6491 6493 28
5195 6491 6494 28
5196 6491 6495 28
5197 6496 6497 28
5198 6496 6498 28
5199 6496 6499 28
5200 6496 6500 28
5201 6501 6502 28
5202 6501 6503 28
5203 6501 6504 28
5204 6501 6505 28
5205 6506 6507 28
5206 6506 6508 28
5207 6506 6509 28
5208 6506 6510 28
5209 6511 6512 28
5210 6511 6513 28
5211 6511 6514 28
5212 6511 6515 28
5213 6516 6517 28
5214 6516 6518 28
5215 6516 6519 28
5216 6516 6520 28
5217 6521 6522 28
5218 6521 6523 28
5219 6521 6524 28
5220 6521 6525 28
5221 6526 6527 28
5222 6526 6528 28
5223 6526 6529 28
5224 6526 6530 28
5225 6531 6532 28
5226 6531 6533 28
5227 6531 6534 28
5228 6531 6535 28
5229 6536 6537 28
5230 6536 6538 28
5231 6536 6539 28
5232 6536 6540 28
5233 6541 6542 28
5234 6541 6543 28
5235 6541 6544 28
5236 6541 6545 28
5237 6546 6547 28
5238 6546 6548 28
5239 6546 6549 28
5240 6546 6550 28
5241 6551 6552 28
5242 6551 6553 28
5243 6551 6554 28
5244 6551 6555 28
5245 6556 6557 28
5246 6556 6558 28
5247 6556 6559 28
5248 6556 6560 28
5249 6561 6562 28
5250 6561 6563 28
5251 6561 6564 28
5252 6561 6565 28
5253 6566 6567 28
5254 6566 6568 28
5255 6566 6569 28
5256 6566 6570 28
5257 6571 6572 28
5258 6571 6573 28
5259 6571 6574 28
5260 6571 6575 28
5261 6576 6577 28
5262 6576 6578 28
5263 6576 6579 28
5264 6576 6580 28
5265 6581 6582 28
5266 6581 6583 28
5267 6581 6584 28
5268 6581 6585 28
5269 6586 6587 28
5270 6586 6588 28
5271 6586 6589 28
5272 6586 6590 28
5273 6591 6592 28
5274 6591 6593 28
5275 6591 6594 28
5276 6591 6595 28
5277 6596 6597 28
5278 6596 6598 28
5279 6596 6599 28
5280 6596 6600 28
5281 6601 6602 28
5282 6601 6603 28
5283 6601 6604 28
5284 6601 6605 28
5285 6606 6607 28
5286 6606 6608 28
5287 6606 6609 28
5288 6606 6610 28
5289 6611 6612 28
5290 6611 6613 28
5291 6611 6614 28
5292 6611 6615 28
5293 6616 6617 28
5294 6616 6618 28
5295 6616 6619 28
5296 6616 6620 28
5297 6621 6622 28
5298 6621 6623 28
5299 6621 6624 28
5300 6621 6625 28
5301 6626 6627 28
5302 6626 6628 28
5303 6626 6629 28
5304 6626 6630 28
5305 6631 6632 28
5306 6631 6633 28
5307 6631 6634 28
5308 6631 6635 28
5309 6636 6637 28
5310 6636 6638 28
5311 6636 6639 28
5312 6636 6640 28
5313 6641 6642 28
5314 6641 6643 28
5315 6641 6644 28
5316 6641 6645 28
5317 6646 6647 28
5318 6646 6648 28
5319 6646 6649 28
5320 6646 6650 28
5321 6651 6652 28
5322 6651 6653 28
5323 6651 6654 28
5324 6651 6655 28
5325 6656 6657 28
5326 6656 6658 28
5327 6656 6659 28
5328 6656 6660 28
5329 6661 6662 28
5330 6661 6663 28
5331 6661 6664 28
5332 6661 6665 28
5333 6666 6667 28
5334 6666 6668 28
5335 6666 6669 28
5336 6666 6670 28
5337 6671 6672 28
5338 6671 6673 28
5339 6671 6674 28
5340 6671 6675 28
5341 6676 6677 28
5342 6676 6678 28
5343 6676 6679 28
5344 6676 6680 28
5345 6681 6682 28
5346 6681 6683 28
5347 6681 6684 28
5348 6681 6685 28
5349 6686 6687 28
5350 6686 6688 28
5351 6686 6689 28
5352 6686 6690 28
5353 6691 6692 28
5354 6691 6693 28
5355 6691 6694 28
5356 6691 6695 28
5357 6696 6697 28
5358 6696 6698 28
5359 6696 6699 28
5360 6696 6700 28
5361 6701 6702 28
5362 6701 6703 28
5363 6701 6704 28
5364 6701 6705 28
5365 6706 6707 28
5366 6706 6708 28
5367 6706 6709 28
5368 6706 6710 28
5369 6711 6712 28
5370 6711 6713 28
5371 6711 6714 28
5372 6711 6715 28
5373 6716 6717 28
5374 6716 6718 28
5375 6716 6719 28
5376 6716 6720 28
5377 6721 6722 28
5378 6721 6723 28
5379 6721 6724 28
5380 6721 6725 28
5381 6726 6727 28
5382 6726 6728 28
5383 6726 6729 28
5384 6726 6730 28
5385 6731 6732 28
5386 6731 6733 28
5387 6731 6734 28
5388 6731 6735 28
5389 6736 6737 28
5390 6736 6738 28
5391 6736 6739 28
5392 6736 6740 28
5393 6741 6742 28
5394 6741 6743 28
5395 6741 6744 28
5396 6741 6745 28
5397 6746 6747 28
5398 6746 6748 28
5399 6746 6749 28
5400 6746 6750 28
5401 6751 6752 28
5402 6751 6753 28
5403 6751 6754 28
5404 6751 6755 28
5405 6756 6757 28
5406 6756 6758 28
5407 6756 6759 28
5408 6756 6760 28
5409 6761 6762 28
5410 6761 6763 28
5411 6761 6764 28
5412 6761 6765 28
5413 6766 6767 28
5414 6766 6768 28
5415 6766 6769 28
5416 6766 6770 28
5417 6771 6772 28
5418 6771 6773 28
5419 6771 6774 28
5420 6771 6775 28
5421 6776 6777 28
5422 6776 6778 28
5423 6776 6779 28
5424 6776 6780 28
5425 6781 6782 28
5426 6781 6783 28
5427 6781 6784 28
5428 6781 6785 28
5429 6786 6787 28
5430 6786 6788 28
5431 6786 6789 28
5432 6786 6790 28
5433 6791 6792 28
5434 6791 6793 28
5435 6791 6794 28
5436 6791 6795 28
5437 6796 6797 28
5438 6796 6798 28
5439 6796 6799 28
5440 6796 6800 28
5441 6801 6802 28
5442 6801 6803 28
5443 6801 6804 28
5444 6801 6805 28
5445 6806 6807 28
5446 6806 6808 28
5447 6806 6809 28
5448 6806 6810 28
5449 6811 6812 28
5450 6811 6813 28
5451 6811 6814 28
5452 6811 6815 28
5453 6816 6817 28
5454 6816 6818 28
5455 6816 6819 28
5456 6816 6820 28
5457 6821 6822 28
5458 6821 6823 28
5459 6821 6824 28
5460 6821 6825 28
5461 6826 6827 28
5462 6826 6828 28
5463 6826 6829 28
5464 6826 6830 28
5465 6831 6832 28
5466 6831 6833 28
5467 6831 6834 28
5468 6831 6835 28
5469 6836 6837 28
5470 6836 6838 28
5471 6836 6839 28
5472 6836 6840 28
5473 6841 6842 28
5474 6841 6843 28
5475 6841 6844 28
5476 6841 6845 28
5477 6846 6847 28
5478 6846 6848 28
5479 6846 6849 28
5480 6846 6850 28
5481 6851 6852 28
5482 6851 6853 28
5483 6851 6854 28
5484 6851 6855 28
5485 6856 6857 28
5486 6856 6858 28
5487 6856 6859 28
5488 6856 6860 28
5489 6861 6862 28
5490 6861 6863 28
5491 6861 6864 28
5492 6861 6865 28
5493 6866 6867 28
5494 6866 6868 28
5495 6866 6869 28
5496 6866 6870 28
5497 6871 6872 28
5498 6871 6873 28
5499 6871 6874 28
5500 6871 6875 28
5501 6876 6877 28
5502 6876 6878 28
5503 6876 6879 28
5504 6876 6880 28
5505 6881 6882 28
5506 6881 6883 28
5507 6881 6884 28
5508 6881 6885 28
5509 6886 6887 28
5510 6886 6888 28
5511 6886 6889 28
5512 6886 6890 28
5513 6891 6892 28
5514 6891 6893 28
5515 6891 6894 28
5516 6891 6895 28
5517 6896 6897 28
5518 6896 6898 28
5519 6896 6899 28
5520 6896 6900 28
5521 6901 6902 28
5522 6901 6903 28
5523 6901 6904 28
5524 6901 6905 28
5525 6906 6907 28
5526 6906 6908 28
5527 6906 6909 28
5528 6906 6910 28
5529 6911 6912 28
5530 6911 6913 28
5531 6911 6914 28
5532 6911 6915 28
5533 6916 6917 28
5534 6916 6918 28
5535 6916 6919 28
5536 6916 6920 28
5537 6921 6922 28
5538 6921 6923 28
5539 6921 6924 28
5540 6921 6925 28
5541 6926 6927 28
5542 6926 6928 28
5543 6926 6929 28
5544 6926 6930 28
5545 6931 6932 28
5546 6931 6933 28
5547 6931 6934 28
5548 6931 6935 28
5549 6936 6937 28
5550 6936 6938 28
5551 6936 6939 28
5552 6936 6940 28
5553 6941 6942 28
5554 6941 6943 28
5555 6941 6944 28
5556 6941 6945 28
5557 6946 6947 28
5558 6946 6948 28
5559 6946 6949 28
5560 6946 6950 28
5561 6951 6952 28
5562 6951 6953 28
5563 6951 6954 28
5564 6951 6955 28
5565 6956 6957 28
5566 6956 6958 28
5567 6956 6959 28
5568 6956 6960 28
5569 6961 6962 28
5570 6961 6963 28
5571 6961 6964 28
5572 6961 6965 28
5573 6966 6967 28
5574 6966 6968 28
5575 6966 6969 28
5576 6966 6970 28
5577 6971 6972 28
5578 6971 6973 28
5579 6971 6974 28
5580 6971 6975 28
5581 6976 6977 28
5582 6976 6978 28
5583 6976 6979 28
5584 6976 6980 28
5585 6981 6982 28
5586 6981 6983 28
5587 6981 6984 28
5588 6981 6985 28
5589 6986 6987 28
5590 6986 6988 28
5591 6986 6989 28
5592 6986 6990 28
5593 6991 6992 28
5594 6991 6993 28
5595 6991 6994 28
5596 6991 6995 28
5597 6996 6997 28
5598 6996 6998 28
5599 6996 6999 28
5600 6996 7000 28
5601 7001 7002 28
5602 7001 7003 28
5603 7001 7004 28
5604 7001 7005 28
5605 7006 7007 28
5606 7006 7008 28
5607 7006 7009 28
5608 7006 7010 28
5609 7011 7012 28
5610 7011 7013 28
5611 7011 7014 28
5612 7011 7015 28
5613 7016 7017 28
5614 7016 7018 28
5615 7016 7019 28
5616 7016 7020 28
5617 7021 7022 28
5618 7021 7023 28
5619 7021 7024 28
5620 7021 7025 28
5621 7026 7027 28
5622 7026 7028 28
5623 7026 7029 28
5624 7026 7030 28
5625 7031 7032 28
5626 7031 7033 28
5627 7031 7034 28
5628 7031 7035 28
5629 7036 7037 28
5630 7036 7038 28
5631 7036 7039 28
5632 7036 7040 28
5633 7041 7042 28
5634 7041 7043 28
5635 7041 7044 28
5636 7041 7045 28
5637 7046 7047 28
5638 7046 7048 28
5639 7046 7049 28
5640 7046 7050 28
5641 7051 7052 28
5642 7051 7053 28
5643 7051 7054 28
5644 7051 7055 28
5645 7056 7057 28
5646 7056 7058 28
5647 7056 7059 28
5648 7056 7060 28
5649 7061 7062 28
5650 7061 7063 28
5651 7061 7064 28
5652 7061 7065 28
5653 7066 7067 28
5654 7066 7068 28
5655 7066 7069 28
5656 7066 7070 28
5657 7071 7072 28
5658 7071 7073 28
5659 7071 7074 28
5660 7071 7075 28
5661 7076 7077 28
5662 7076 7078 28
5663 7076 7079 28
5664 7076 7080 28
5665 7081 7082 28
5666 7081 7083 28
5667 7081 7084 28
5668 7081 7085 28
5669 7086 7087 28
5670 7086 7088 28
5671 7086 7089 28
5672 7086 7090 28
5673 7091 7092 28
5674 7091 7093 28
5675 7091 7094 28
5676 7091 7095 28
5677 7096 7097 28
5678 7096 7098 28
5679 7096 7099 28
5680 7096 7100 28
5681 7101 7102 28
5682 7101 7103 28
5683 7101 7104 28
5684 7101 7105 28
5685 7106 7107 28
5686 7106 7108 28
5687 7106 7109 28
5688 7106 7110 28
5689 7111 7112 28
5690 7111 7113 28
5691 7111 7114 28
5692 7111 7115 28
5693 7116 7117 28
5694 7116 7118 28
5695 7116 7119 28
5696 7116 7120 28
5697 7121 7122 28
5698 7121 7123 28
5699 7121 7124 28
5700 7121 7125 28
5701 7126 7127 28
5702 7126 7128 28
5703 7126 7129 28
5704 7126 7130 28
5705 7131 7132 28
5706 7131 7133 28
5707 7131 7134 28
5708 7131 7135 28
5709 7136 7137 28
5710 7136 7138 28
5711 7136 7139 28
5712 7136 7140 28
5713 7141 7142 28
5714 7141 7143 28
5715 7141 7144 28
5716 7141 7145 28
5717 7146 7147 28
5718 7146 7148 28
5719 7146 7149 28
5720 7146 7150 28
5721 7151 7152 28
5722 7151 7153 28
5723 7151 7154 28
5724 7151 7155 28
5725 7156 7157 28
5726 7156 7158 28
5727 7156 7159 28
5728 7156 7160 28
5729 7161 7162 28
5730 7161 7163 28
5731 7161 7164 28
5732 7161 7165 28
5733 7166 7167 28
5734 7166 7168 28
5735 7166 7169 28
5736 7166 7170 28
5737 7171 7172 28
5738 7171 7173 28
5739 7171 7174 28
5740 7171 7175 28
5741 7176 7177 28
5742 7176 7178 28
5743 7176 7179 28
5744 7176 7180 28
5745 7181 7182 28
5746 7181 7183 28
5747 7181 7184 28
5748 7181 7185 28
5749 7186 7187 28
5750 7186 7188 28
5751 7186 7189 28
5752 7186 7190 28
5753 7191 7192 28
5754 7191 7193 28
5755 7191 7194 28
5756 7191 7195 28
5757 7196 7197 28
5758 7196 7198 28
5759 7196 7199 28
5760 7196 7200 28
5761 7201 7202 28
5762 7201 7203 28
5763 7201 7204 28
5764 7201 7205 28
5765 7206 7207 28
5766 7206 7208 28
5767 7206 7209 28
5768 7206 7210 28
5769 7211 7212 28
5770 7211 7213 28
5771 7211 7214 28
5772 7211 7215 28
5773 7216 7217 28
5774 7216 7218 28
5775 7216 7219 28
5776 7216 7220 28
5777 7221 7222 28
5778 7221 7223 28
5779 7221 7224 28
5780 7221 7225 28
5781 7226 7227 28
5782 7226 7228 28
5783 7226 7229 28
5784 7226 7230 28
5785 7231 7232 28
5786 7231 7233 28
5787 7231 7234 28
5788 7231 7235 28
5789 7236 7237 28
5790 7236 7238 28
5791 7236 7239 28
5792 7236 7240 28
5793 7241 7242 28
5794 7241 7243 28
5795 7241 7244 28
5796 7241 7245 28
5797 7246 7247 28
5798 7246 7248 28
5799 7246 7249 28
5800 7246 7250 28
5801 7251 7252 28
5802 7251 7253 28
5803 7251 7254 28
5804 7251 7255 28
5805 7256 7257 28
5806 7256 7258 28
5807 7256 7259 28
5808 7256 7260 28
5809 7261 7262 28
5810 7261 7263 28
5811 7261 7264 28
5812 7261 7265 28
5813 7266 7267 28
5814 7266 7268 28
5815 7266 7269 28
5816 7266 7270 28
5817 7271 7272 28
5818 7271 7273 28
5819 7271 7274 28
5820 7271 7275 28
5821 7276 7277 28
5822 7276 7278 28
5823 7276 7279 28
5824 7276 7280 28
5825 7281 7282 28
5826 7281 7283 28
5827 7281 7284 28
5828 7281 7285 28
5829 7286 7287 28
5830 7286 7288 28
5831 7286 7289 28
5832 7286 7290 28
5833 7291 7292 28
5834 7291 7293 28
5835 7291 7294 28
5836 7291 7295 28
5837 7296 7297 28
5838 7296 7298 28
5839 7296 7299 28
5840 7296 7300 28
5841 7301 7302 28
5842 7301 7303 28
5843 7301 7304 28
5844 7301 7305 28
5845 7306 7307 28
5846 7306 7308 28
5847 7306 7309 28
5848 7306 7310 28
5849 7311 7312 28
5850 7311 7313 28
5851 7311 7314 28
5852 7311 7315 28
5853 7316 7317 28
5854 7316 7318 28
5855 7316 7319 28
5856 7316 7320 28
5857 7321 7322 28
5858 7321 7323 28
5859 7321 7324 28
5860 7321 7325 28
5861 7326 7327 28
5862 7326 7328 28
5863 7326 7329 28
5864 7326 7330 28
5865 7331 7332 28
5866 7331 7333 28
5867 7331 7334 28
5868 7331 7335 28
5869 7336 7337 28
5870 7336 7338 28
5871 7336 7339 28
5872 7336 7340 28
5873 7341 7342 28
5874 7341 7343 28
5875 7341 7344 28
5876 7341 7345 28
5877 7346 7347 28
5878 7346 7348 28
5879 7346 7349 28
5880 7346 7350 28
5881 7351 7352 28
5882 7351 7353 28
5883 7351 7354 28
5884 7351 7355 28
5885 7356 7357 28
5886 7356 7358 28
5887 7356 7359 28
5888 7356 7360 28
5889 7361 7362 28
5890 7361 7363 28
5891 7361 7364 28
5892 7361 7365 28
5893 7366 7367 28
5894 7366 7368 28
5895 7366 7369 28
5896 7366 7370 28
5897 7371 7372 28
5898 7371 7373 28
5899 7371 7374 28
5900 7371 7375 28
5901 7376 7377 28
5902 7376 7378 28
5903 7376 7379 28
5904 7376 7380 28
5905 7381 7382 28
5906 7381 7383 28
5907 7381 7384 28
5908 7381 7385 28
5909 7386 7387 28
5910 7386 7388 28
5911 7386 7389 28
5912 7386 7390 28
5913 7391 7392 28
5914 7391 7393 28
5915 7391 7394 28
5916 7391 7395 28
5917 7396 7397 28
5918 7396 7398 28
5919 7396 7399 28
5920 7396 7400 28
5921 7401 7402 28
5922 7401 7403 28
5923 7401 7404 28
5924 7401 7405 28
5925 7406 7407 28
5926 7406 7408 28
5927 7406 7409 28
5928 7406 7410 28
5929 7411 7412 28
5930 7411 7413 28
5931 7411 7414 28
5932 7411 7415 28
5933 7416 7417 28
5934 7416 7418 28
5935 7416 7419 28
5936 7416 7420 28
5937 7421 7422 28
5938 7421 7423 28
5939 7421 7424 28
5940 7421 7425 28
5941 7426 7427 28
5942 7426 7428 28
5943 7426 7429 28
5944 7426 7430 28
5945 7431 7432 28
5946 7431 7433 28
5947 7431 7434 28
5948 7431 7435 28
5949 7436 7437 28
5950 7436 7438 28
5951 7436 7439 28
5952 7436 7440 28
5953 7441 7442 28
5954 7441 7443 28
5955 7441 7444 28
5956 7441 7445 28
5957 7446 7447 28
5958 7446 7448 28
5959 7446 7449 28
5960 7446 7450 28
5961 7451 7452 28
5962 7451 7453 28
5963 7451 7454 28
5964 7451 7455 28
5965 7456 7457 28
5966 7456 7458 28
5967 7456 7459 28
5968 7456 7460 28
5969 7461 7462 28
5970 7461 7463 28
5971 7461 7464 28
5972 7461 7465 28
5973 7466 7467 28
5974 7466 7468 28
5975 7466 7469 28
5976 7466 7470 28
5977 7471 7472 28
5978 7471 7473 28
5979 7471 7474 28
5980 7471 7475 28
5981 7476 7477 28
5982 7476 7478 28
5983 7476 7479 28
5984 7476 7480 28
5985 7481 7482 28
5986 7481 7483 28
5987 7481 7484 28
5988 7481 7485 28
5989 7486 7487 28
5990 7486 7488 28
5991 7486 7489 28
5992 7486 7490 28
5993 7491 7492 28
5994 7491 7493 28
5995 7491 7494 28
5996 7491 7495 28
5997 7496 7497 28
5998 7496 7498 28
5999 7496 7499 28
6000 7496 7500 28
6001 7501 7502 28
6002 7501 7503 28
6003 7501 7504 28
6004 7501 7505 28
6005 7506 7507 28
6006 7506 7508 28
6007 7506 7509 28
6008 7506 7510 28
6009 7511 7512 28
6010 7511 7513 28
6011 7511 7514 28
6012 7511 7515 28
6013 7516 7517 28
6014 7516 7518 28
6015 7516 7519 28
6016 7516 7520 28
6017 7521 7522 28
6018 7521 7523 28
6019 7521 7524 28
6020 7521 7525 28
6021 7526 7527 28
6022 7526 7528 28
6023 7526 7529 28
6024 7526 7530 28
6025 7531 7532 28
6026 7531 7533 28
6027 7531 7534 28
6028 7531 7535 28
6029 7536 7537 28
6030 7536 7538 28
6031 7536 7539 28
6032 7536 7540 28
6033 7541 7542 28
6034 7541 7543 28
6035 7541 7544 28
6036 7541 7545 28
6037 7546 7547 28
6038 7546 7548 28
6039 7546 7549 28
6040 7546 7550 28
6041 7551 7552 28
6042 7551 7553 28
6043 7551 7554 28
6044 7551 7555 28
6045 7556 7557 28
6046 7556 7558 28
6047 7556 7559 28
6048 7556 7560 28
6049 7561 7562 28
6050 7561 7563 28
6051 7561 7564 28
6052 7561 7565 28
6053 7566 7567 28
6054 7566 7568 28
6055 7566 7569 28
6056 7566 7570 28
6057 7571 7572 28
6058 7571 7573 28
6059 7571 7574 28
6060 7571 7575 28
6061 7576 7577 28
6062 7576 7578 28
6063 7576 7579 28
6064 7576 7580 28
6065 7581 7582 28
6066 7581 7583 28
6067 7581 7584 28
6068 7581 7585 28
6069 7586 7587 28
6070 7586 7588 28
6071 7586 7589 28
6072 7586 7590 28
6073 7591 7592 28
6074 7591 7593 28
6075 7591 7594 28
6076 7591 7595 28
6077 7596 7597 28
6078 7596 7598 28
6079 7596 7599 28
6080 7596 7600 28
6081 7601 7602 28
6082 7601 7603 28
6083 7601 7604 28
6084 7601 7605 28
6085 7606 7607 28
6086 7606 7608 28
6087 7606 7609 28
6088 7606 7610 28
6089 7611 7612 28
6090 7611 7613 28
6091 7611 7614 28
6092 7611 7615 28
6093 7616 7617 28
6094 7616 7618 28
6095 7616 7619 28
6096 7616 7620 28
6097 7621 7622 28
6098 7621 7623 28
6099 7621 7624 28
6100 7621 7625 28
6101 7626 7627 28
6102 7626 7628 28
6103 7626 7629 28
6104 7626 7630 28
6105 7631 7632 28
6106 7631 7633 28
6107 7631 7634 28
6108 7631 7635 28
6109 7636 7637 28
6110 7636 7638 28
6111 7636 7639 28
6112 7636 7640 28
6113 7641 7642 28
6114 7641 7643 28
6115 7641 7644 28
6116 7641 7645 28
6117 7646 7647 28
6118 7646 7648 28
6119 7646 7649 28
6120 7646 7650 28
6121 7651 7652 28
6122 7651 7653 28
6123 7651 7654 28
6124 7651 7655 28
6125 7656 7657 28
6126 7656 7658 28
6127 7656 7659 28
6128 7656 7660 28
6129 7661 7662 28
6130 7661 7663 28
6131 7661 7664 28
6132 7661 7665 28
6133 7666 7667 28
6134 7666 7668 28
6135 7666 7669 28
6136 7666 7670 28
6137 7671 7672 28
6138 7671 7673 28
6139 7671 7674 28
6140 7671 7675 28
6141 7676 7677 28
6142 7676 7678 28
6143 7676 7679 28
6144 7676 7680 28
6145 7681 7682 28
6146 7681 7683 28
6147 7681 7684 28
6148 7681 7685 28
6149 7686 7687 28
6150 7686 7688 28
6151 7686 7689 28
6152 7686 7690 28
6153 7691 7692 28
6154 7691 7693 28
6155 7691 7694 28
6156 7691 7695 28
6157 7696 7697 28
6158 7696 7698 28
6159 7696 7699 28
6160 7696 7700 28
6161 7701 7702 28
6162 7701 7703 28
6163 7701 7704 28
6164 7701 7705 28
6165 7706 7707 28
6166 7706 7708 28
6167 7706 7709 28
6168 7706 7710 28
6169 7711 7712 28
6170 7711 7713 28
6171 7711 7714 28
6172 7711 7715 28
6173 7716 7717 28
6174 7716 7718 28
6175 7716 7719 28
6176 7716 7720 28
6177 7721 7722 28
6178 7721 7723 28
6179 7721 7724 28
6180 7721 7725 28
6181 7726 7727 28
6182 7726 7728 28
6183 7726 7729 28
6184 7726 7730 28
6185 7731 7732 28
6186 7731 7733 28
6187 7731 7734 28
6188 7731 7735 28
6189 7736 7737 28
6190 7736 7738 28
6191 7736 7739 28
6192 7736 7740 28
6193 7741 7742 28
6194 7741 7743 28
6195 7741 7744 28
6196 7741 7745 28
6197 7746 7747 28
6198 7746 7748 28
6199 7746 7749 28
6200 7746 7750 28
6201 7751 7752 28
6202 7751 7753 28
6203 7751 7754 28
6204 7751 7755 28
6205 7756 7757 28
6206 7756 7758 28
6207 7756 7759 28
6208 7756 7760 28
6209 7761 7762 28
6210 7761 7763 28
6211 7761 7764 28
6212 7761 7765 28
6213 7766 7767 28
6214 7766 7768 28
6215 7766 7769 28
6216 7766 7770 28
6217 7771 7772 28
6218 7771 7773 28
6219 7771 7774 28
6220 7771 7775 28
6221 7776 7777 28
6222 7776 7778 28
6223 7776 7779 28
6224 7776 7780 28
6225 7781 7782 28
6226 7781 7783 28
6227 7781 7784 28
6228 7781 7785 28
6229 7786 7787 28
6230 7786 7788 28
6231 7786 7789 28
6232 7786 7790 28
6233 7791 7792 28
6234 7791 7793 28
6235 7791 7794 28
6236 7791 7795 28
6237 7796 7797 28
6238 7796 7798 28
6239 7796 7799 28
6240 7796 7800 28
6241 7801 7802 28
6242 7801 7803 28
6243 7801 7804 28
6244 7801 7805 28
6245 7806 7807 28
6246 7806 7808 28
6247 7806 7809 28
6248 7806 7810 28
6249 7811 7812 28
6250 7811 7813 28
6251 7811 7814 28
6252 7811 7815 28
6253 7816 7817 28
6254 7816 7818 28
6255 7816 7819 28
6256 7816 7820 28
6257 7821 7822 28
6258 7821 7823 28
6259 7821 7824 28
6260 7821 7825 28
6261 7826 7827 28
6262 7826 7828 28
6263 7826 7829 28
6264 7826 7830 28
6265 7831 7832 28
6266 7831 7833 28
6267 7831 7834 28
6268 7831 7835 28
6269 7836 7837 28
6270 7836 7838 28
6271 7836 7839 28
6272 7836 7840 28
6273 7841 7842 28
6274 7841 7843 28
6275 7841 7844 28
6276 7841 7845 28
6277 7846 7847 28
6278 7846 7848 28
6279 7846 7849 28
6280 7846 7850 28
6281 7851 7852 28
6282 7851 7853 28
6283 7851 7854 28
6284 7851 7855 28
6285 7856 7857 28
6286 7856 7858 28
6287 7856 7859 28
6288 7856 7860 28
6289 7861 7862 28
6290 7861 7863 28
6291 7861 7864 28
6292 7861 7865 28
6293 7866 7867 28
6294 7866 7868 28
6295 7866 7869 28
6296 7866 7870 28
6297 7871 7872 28
6298 7871 7873 28
6299 7871 7874 28
6300 7871 7875 28
6301 7876 7877 28
6302 7876 7878 28
6303 7876 7879 28
6304 7876 7880 28
6305 7881 7882 28
6306 7881 7883 28
6307 7881 7884 28
6308 7881 7885 28
6309 7886 7887 28
6310 7886 7888 28
6311 7886 7889 28
6312 7886 7890 28
6313 7891 7892 28
6314 7891 7893 28
6315 7891 7894 28
6316 7891 7895 28
6317 7896 7897 28
6318 7896 7898 28
6319 7896 7899 28
6320 7896 7900 28
6321 7901 7902 28
6322 7901 7903 28
6323 7901 7904 28
6324 7901 7905 28
6325 7906 7907 28
6326 7906 7908 28
6327 7906 7909 28
6328 7906 7910 28
6329 7911 7912 28
6330 7911 7913 28
6331 7911 7914 28
6332 7911 7915 28
6333 7916 7917 28
6334 7916 7918 28
6335 7916 7919 28
6336 7916 7920 28
6337 7921 7922 28
6338 7921 7923 28
6339 7921 7924 28
6340 7921 7925 28
6341 7926 7927 28
6342 7926 7928 28
6343 7926 7929 28
6344 7926 7930 28
6345 7931 7932 28
6346 7931 7933 28
6347 7931 7934 28
6348 7931 7935 28
6349 7936 7937 28
6350 7936 7938 28
6351 7936 7939 28
6352 7936 7940 28
6353 7941 7942 28
6354 7941 7943 28
6355 7941 7944 28
6356 7941 7945 28
6357 7946 7947 28
6358 7946 7948 28
6359 7946 7949 28
6360 7946 7950 28
6361 7951 7952 28
6362 7951 7953 28
6363 7951 7954 28
6364 7951 7955 28
6365 7956 7957 28
6366 7956 7958 28
6367 7956 7959 28
6368 7956 7960 28
6369 7961 7962 28
6370 7961 7963 28
6371 7961 7964 28
6372 7961 7965 28
6373 7966 7967 28
6374 7966 7968 28
6375 7966 7969 28
6376 7966 7970 28
6377 7971 7972 28
6378 7971 7973 28
6379 7971 7974 28
6380 7971 7975 28
6381 7976 7977 28
6382 7976 7978 28
6383 7976 7979 28
6384 7976 7980 28
6385 7981 7982 28
6386 7981 7983 28
6387 7981 7984 28
6388 7981 7985 28
6389 7986 7987 28
6390 7986 7988 28
6391 7986 7989 28
6392 7986 7990 28
6393 7991 7992 28
6394 7991 7993 28
6395 7991 7994 28
6396 7991 7995 28
6397 7996 7997 28
6398 7996 7998 28
6399 7996 7999 28
6400 7996 8000 28
6401 8001 8002 28
6402 8001 8003 28
6403 8001 8004 28
6404 8001 8005 28
6405 8006 8007 28
6406 8006 8008 28
6407 8006 8009 28
6408 8006 8010 28
6409 8011 8012 28
6410 8011 8013 28
6411 8011 8014 28
6412 8011 8015 28
6413 8016 8017 28
6414 8016 8018 28
6415 8016 8019 28
6416 8016 8020 28
6417 8021 8022 28
6418 8021 8023 28
6419 8021 8024 28
6420 8021 8025 28
6421 8026 8027 28
6422 8026 8028 28
6423 8026 8029 28
6424 8026 8030 28
6425 8031 8032 28
6426 8031 8033 28
6427 8031 8034 28
6428 8031 8035 28
6429 8036 8037 28
6430 8036 8038 28
6431 8036 8039 28
6432 8036 8040 28
6433 8041 8042 28
6434 8041 8043 28
6435 8041 8044 28
6436 8041 8045 28
6437 8046 8047 28
6438 8046 8048 28
6439 8046 8049 28
6440 8046 8050 28
6441 8051 8052 28
6442 8051 8053 28
6443 8051 8054 28
6444 8051 8055 28
6445 8056 8057 28
6446 8056 8058 28
6447 8056 8059 28
6448 8056 8060 28
6449 8061 8062 28
6450 8061 8063 28
6451 8061 8064 28
6452 8061 8065 28
6453 8066 8067 28
6454 8066 8068 28
6455 8066 8069 28
6456 8066 8070 28
6457 8071 8072 28
6458 8071 8073 28
6459 8071 8074 28
6460 8071 8075 28
6461 8076 8077 28
6462 8076 8078 28
6463 8076 8079 28
6464 8076 8080 28
6465 8081 8082 28
6466 8081 8083 28
6467 8081 8084 28
6468 8081 8085 28
6469 8086 8087 28
6470 8086 8088 28
6471 8086 8089 28
6472 8086 8090 28
6473 8091 8092 28
6474 8091 8093 28
6475 8091 8094 28
6476 8091 8095 28
6477 8096 8097 28
6478 8096 8098 28
6479 8096 8099 28
6480 8096 8100 28
6481 8101 8102 28
6482 8101 8103 28
6483 8101 8104 28
6484 8101 8105 28
6485 8106 8107 28
6486 8106 8108 28
6487 8106 8109 28
6488 8106 8110 28
6489 8111 8112 28
6490 8111 8113 28
6491 8111 8114 28
6492 8111 8115 28
6493 8116 8117 28
6494 8116 8118 28
6495 8116 8119 28
6496 8116 8120 28
6497 8121 8122 28
6498 8121 8123 28
6499 8121 8124 28
6500 8121 8125 28
6501 8126 8127 28
6502 8126 8128 28
6503 8126 8129 28
6504 8126 8130 28
6505 8131 8132 28
6506 8131 8133 28
6507 8131 8134 28
6508 8131 8135 28
6509 8136 8137 28
6510 8136 8138 28
6511 8136 8139 28
6512 8136 8140 28
6513 8141 8142 28
6514 8141 8143 28
6515 8141 8144 28
6516 8141 8145 28
6517 8146 8147 28
6518 8146 8148 28
6519 8146 8149 28
6520 8146 8150 28
6521 8151 8152 28
6522 8151 8153 28
6523 8151 8154 28
6524 8151 8155 28
6525 8156 8157 28
6526 8156 8158 28
6527 8156 8159 28
6528 8156 8160 28
6529 8161 8162 28
6530 8161 8163 28
6531 8161 8164 28
6532 8161 8165 28
6533 8166 8167 28
6534 8166 8168 28
6535 8166 8169 28
6536 8166 8170 28
6537 8171 8172 28
6538 8171 8173 28
6539 8171 8174 28
6540 8171 8175 28
6541 8176 8177 28
6542 8176 8178 28
6543 8176 8179 28
6544 8176 8180 28
6545 8181 8182 28
6546 8181 8183 28
6547 8181 8184 28
6548 8181 8185 28
6549 8186 8187 28
6550 8186 8188 28
6551 8186 8189 28
6552 8186 8190 28
6553 8191 8192 28
6554 8191 8193 28
6555 8191 8194 28
6556 8191 8195 28
6557 8196 8197 28
6558 8196 8198 28
6559 8196 8199 28
6560 8196 8200 28
6561 8201 8202 28
6562 8201 8203 28
6563 8201 8204 28
6564 8201 8205 28
6565 8206 8207 28
6566 8206 8208 28
6567 8206 8209 28
6568 8206 8210 28
6569 8211 8212 28
6570 8211 8213 28
6571 8211 8214 28
6572 8211 8215 28
6573 8216 8217 28
6574 8216 8218 28
6575 8216 8219 28
6576 8216 8220 28
6577 8221 8222 28
6578 8221 8223 28
6579 8221 8224 28
6580 8221 8225 28
6581 8226 8227 28
6582 8226 8228 28
6583 8226 8229 28
6584 8226 8230 28
6585 8231 8232 28
6586 8231 8233 28
6587 8231 8234 28
6588 8231 8235 28
6589 8236 8237 28
6590 8236 8238 28
6591 8236 8239 28
6592 8236 8240 28
6593 8241 8242 28
6594 8241 8243 28
6595 8241 8244 28
6596 8241 8245 28
6597 8246 8247 28
6598 8246 8248 28
6599 8246 8249 28
6600 8246 8250 28
6601 8251 8252 28
6602 8251 8253 28
6603 8251 8254 28
6604 8251 8255 28
6605 8256 8257 28
6606 8256 8258 28
6607 8256 8259 28
6608 8256 8260 28
6609 8261 8262 28
6610 8261 8263 28
6611 8261 8264 28
6612 8261 8265 28
6613 8266 8267 28
6614 8266 8268 28
6615 8266 8269 28
6616 8266 8270 28
6617 8271 8272 28
6618 8271 8273 28
6619 8271 8274 28
6620 8271 8275 28
6621 8276 8277 28
6622 8276 8278 28
6623 8276 8279 28
6624 8276 8280 28
6625 8281 8282 28
6626 8281 8283 28
6627 8281 8284 28
6628 8281 8285 28
6629 8286 8287 28
6630 8286 8288 28
6631 8286 8289 28
6632 8286 8290 28
6633 8291 8292 28
6634 8291 8293 28
6635 8291 8294 28
6636 8291 8295 28
6637 8296 8297 28
6638 8296 8298 28
6639 8296 8299 28
6640 8296 8300 28
6641 8301 8302 28
6642 8301 8303 28
6643 8301 8304 28
6644 8301 8305 28
6645 8306 8307 28
6646 8306 8308 28
6647 8306 8309 28
6648 8306 8310 28
6649 8311 8312 28
6650 8311 8313 28
6651 8311 8314 28
6652 8311 8315 28
6653 8316 8317 28
6654 8316 8318 28
6655 8316 8319 28
6656 8316 8320 28
6657 8321 8322 28
6658 8321 8323 28
6659 8321 8324 28
6660 8321 8325 28
6661 8326 8327 28
6662 8326 8328 28
6663 8326 8329 28
6664 8326 8330 28
6665 8331 8332 28
6666 8331 8333 28
6667 8331 8334 28
6668 8331 8335 28
6669 8336 8337 28
6670 8336 8338 28
6671 8336 8339 28
6672 8336 8340 28
6673 8341 8342 28
6674 8341 8343 28
6675 8341 8344 28
6676 8341 8345 28
6677 8346 8347 28
6678 8346 8348 28
6679 8346 8349 28
6680 8346 8350 28
6681 8351 8352 28
6682 8351 8353 28
6683 8351 8354 28
6684 8351 8355 28
6685 8356 8357 28
6686 8356 8358 28
6687 8356 8359 28
6688 8356 8360 28
6689 8361 8362 28
6690 8361 8363 28
6691 8361 8364 28
6692 8361 8365 28
6693 8366 8367 28
6694 8366 8368 28
6695 8366 8369 28
6696 8366 8370 28
6697 8371 8372 28
6698 8371 8373 28
6699 8371 8374 28
6700 8371 8375 28
6701 8376 8377 28
6702 8376 8378 28
6703 8376 8379 28
6704 8376 8380 28
6705 8381 8382 28
6706 8381 8383 28
6707 8381 8384 28
6708 8381 8385 28
6709 8386 8387 28
6710 8386 8388 28
6711 8386 8389 28
6712 8386 8390 28
6713 8391 8392 28
6714 8391 8393 28
6715 8391 8394 28
6716 8391 8395 28
6717 8396 8397 28
6718 8396 8398 28
6719 8396 8399 28
6720 8396 8400 28
6721 8401 8402 28
6722 8401 8403 28
6723 8401 8404 28
6724 8401 8405 28
6725 8406 8407 28
6726 8406 8408 28
6727 8406 8409 28
6728 8406 8410 28
6729 8411 8412 28
6730 8411 8413 28
6731 8411 8414 28
6732 8411 8415 28
6733 8416 8417 28
6734 8416 8418 28
6735 8416 8419 28
6736 8416 8420 28
6737 8421 8422 28
6738 8421 8423 28
6739 8421 8424 28
6740 8421 8425 28
6741 8426 8427 28
6742 8426 8428 28
6743 8426 8429 28
6744 8426 8430 28
6745 8431 8432 28
6746 8431 8433 28
6747 8431 8434 28
6748 8431 8435 28
6749 8436 8437 28
6750 8436 8438 28
6751 8436 8439 28
6752 8436 8440 28
6753 8441 8442 28
6754 8441 8443 28
6755 8441 8444 28
6756 8441 8445 28
6757 8446 8447 28
6758 8446 8448 28
6759 8446 8449 28
6760 8446 8450 28
6761 8451 8452 28
6762 8451 8453 28
6763 8451 8454 28
6764 8451 8455 28
6765 8456 8457 28
6766 8456 8458 28
6767 8456 8459 28
6768 8456 8460 28
6769 8461 8462 28
6770 8461 8463 28
6771 8461 8464 28
6772 8461 8465 28
6773 8466 8467 28
6774 8466 8468 28
6775 8466 8469 28
6776 8466 8470 28
6777 8471 8472 28
6778 8471 8473 28
6779 8471 8474 28
6780 8471 8475 28
6781 8476 8477 28
6782 8476 8478 28
6783 8476 8479 28
6784 8476 8480 28
6785 8481 8482 28
6786 8481 8483 28
6787 8481 8484 28
6788 8481 8485 28
6789 8486 8487 28
6790 8486 8488 28
6791 8486 8489 28
6792 8486 8490 28
6793 8491 8492 28
6794 8491 8493 28
6795 8491 8494 28
6796 8491 8495 28
6797 8496 8497 28
6798 8496 8498 28
6799 8496 8499 28
6800 8496 8500 28
6801 8501 8502 28
6802 8501 8503 28
6803 8501 8504 28
6804 8501 8505 28
6805 8506 8507 28
6806 8506 8508 28
6807 8506 8509 28
6808 8506 8510 28
6809 8511 8512 28
6810 8511 8513 28
6811 8511 8514 28
6812 8511 8515 28
6813 8516 8517 28
6814 8516 8518 28
6815 8516 8519 28
6816 8516 8520 28
6817 8521 8522 28
6818 8521 8523 28
6819 8521 8524 28
6820 8521 8525 28
6821 8526 8527 28
6822 8526 8528 28
6823 8526 8529 28
6824 8526 8530 28
6825 8531 8532 28
6826 8531 8533 28
6827 8531 8534 28
6828 8531 8535 28
6829 8536 8537 28
6830 8536 8538 28
6831 8536 8539 28
6832 8536 8540 28
6833 8541 8542 28
6834 8541 8543 28
6835 8541 8544 28
6836 8541 8545 28
6837 8546 8547 28
6838 8546 8548 28
6839 8546 8549 28
6840 8546 8550 28
6841 8551 8552 28
6842 8551 8553 28
6843 8551 8554 28
6844 8551 8555 28
6845 8556 8557 28
6846 8556 8558 28
6847 8556 8559 28
6848 8556 8560 28
6849 8561 8562 28
6850 8561 8563 28
6851 8561 8564 28
6852 8561 8565 28
6853 8566 8567 28
6854 8566 8568 28
6855 8566 8569 28
6856 8566 8570 28
6857 8571 8572 28
6858 8571 8573 28
6859 8571 8574 28
6860 8571 8575 28
6861 8576 8577 28
6862 8576 8578 28
6863 8576 8579 28
6864 8576 8580 28
6865 8581 8582 28
6866 8581 8583 28
6867 8581 8584 28
6868 8581 8585 28
6869 8586 8587 28
6870 8586 8588 28
6871 8586 8589 28
6872 8586 8590 28
6873 8591 8592 28
6874 8591 8593 28
6875 8591 8594 28
6876 8591 8595 28
6877 8596 8597 28
6878 8596 8598 28
6879 8596 8599 28
6880 8596 8600 28
6881 8601 8602 28
6882 8601 8603 28
6883 8601 8604 28
6884 8601 8605 28
6885 8606 8607 28
6886 8606 8608 28
6887 8606 8609 28
6888 8606 8610 28
6889 8611 8612 28
6890 8611 8613 28
6891 8611 8614 28
6892 8611 8615 28
6893 8616 8617 28
6894 8616 8618 28
6895 8616 8619 28
6896 8616 8620 28
6897 8621 8622 28
6898 8621 8623 28
6899 8621 8624 28
6900 8621 8625 28
6901 8626 8627 28
6902 8626 8628 28
6903 8626 8629 28
6904 8626 8630 28
6905 8631 8632 28
6906 8631 8633 28
6907 8631 8634 28
6908 8631 8635 28
6909 8636 8637 28
6910 8636 8638 28
6911 8636 8639 28
6912 8636 8640 28
6913 8641 8642 28
6914 8641 8643 28
6915 8641 8644 28
6916 8641 8645 28
6917 8646 8647 28
6918 8646 8648 28
6919 8646 8649 28
6920 8646 8650 28
6921 8651 8652 28
6922 8651 8653 28
6923 8651 8654 28
6924 8651 8655 28
6925 8656 8657 28
6926 8656 8658 28
6927 8656 8659 28
6928 8656 8660 28
6929 8661 8662 28
6930 8661 8663 28
6931 8661 8664 28
6932 8661 8665 28
6933 8666 8667 28
6934 8666 8668 28
6935 8666 8669 28
6936 8666 8670 28
6937 8671 8672 28
6938 8671 8673 28
6939 8671 8674 28
6940 8671 8675 28
6941 8676 8677 28
6942 8676 8678 28
6943 8676 8679 28
6944 8676 8680 28
6945 8681 8682 28
6946 8681 8683 28
6947 8681 8684 28
6948 8681 8685 28
6949 8686 8687 28
6950 8686 8688 28
6951 8686 8689 28
6952 8686 8690 28
6953 8691 8692 28
6954 8691 8693 28
6955 8691 8694 28
6956 8691 8695 28
6957 8696 8697 28
6958 8696 8698 28
6959 8696 8699 28
6960 8696 8700 28
6961 8701 8702 28
6962 8701 8703 28
6963 8701 8704 28
6964 8701 8705 28
6965 8706 8707 28
6966 8706 8708 28
6967 8706 8709 28
6968 8706 8710 28
6969 8711 8712 28
6970 8711 8713 28
6971 8711 8714 28
6972 8711 8715 28
6973 8716 8717 28
6974 8716 8718 28
6975 8716 8719 28
6976 8716 8720 28
6977 8721 8722 28
6978 8721 8723 28
6979 8721 8724 28
6980 8721 8725 28
6981 8726 8727 28
6982 8726 8728 28
6983 8726 8729 28
6984 8726 8730 28
6985 8731 8732 28
6986 8731 8733 28
6987 8731 8734 28
6988 8731 8735 28
6989 8736 8737 28
6990 8736 8738 28
6991 8736 8739 28
6992 8736 8740 28
6993 8741 8742 28
6994 8741 8743 28
6995 8741 8744 28
6996 8741 8745 28
6997 8746 8747 28
6998 8746 8748 28
6999 8746 8749 28
7000 8746 8750 28
7001 8751 8752 28
7002 8751 8753 28
7003 8751 8754 28
7004 8751 8755 28
7005 8756 8757 28
7006 8756 8758 28
7007 8756 8759 28
7008 8756 8760 28
7009 8761 8762 28
7010 8761 8763 28
7011 8761 8764 28
7012 8761 8765 28
7013 8766 8767 28
7014 8766 8768 28
7015 8766 8769 28
7016 8766 8770 28
7017 8771 8772 28
7018 8771 8773 28
7019 8771 8774 28
7020 8771 8775 28
7021 8776 8777 28
7022 8776 8778 28
7023 8776 8779 28
7024 8776 8780 28
7025 8781 8782 28
7026 8781 8783 28
7027 8781 8784 28
7028 8781 8785 28
7029 8786 8787 28
7030 8786 8788 28
7031 8786 8789 28
7032 8786 8790 28
7033 8791 8792 28
7034 8791 8793 28
7035 8791 8794 28
7036 8791 8795 28
7037 8796 8797 28
7038 8796 8798 28
7039 8796 8799 28
7040 8796 8800 28
7041 8801 8802 28
7042 8801 8803 28
7043 8801 8804 28
7044 8801 8805 28
7045 8806 8807 28
7046 8806 8808 28
7047 8806 8809 28
7048 8806 8810 28
7049 8811 8812 28
7050 8811 8813 28
7051 8811 8814 28
7052 8811 8815 28
7053 8816 8817 28
7054 8816 8818 28
7055 8816 8819 28
7056 8816 8820 28
7057 8821 8822 28
7058 8821 8823 28
7059 8821 8824 28
7060 8821 8825 28
7061 8826 8827 28
7062 8826 8828 28
7063 8826 8829 28
7064 8826 8830 28
7065 8831 8832 28
7066 8831 8833 28
7067 8831 8834 28
7068 8831 8835 28
7069 8836 8837 28
7070 8836 8838 28
7071 8836 8839 28
7072 8836 8840 28
7073 8841 8842 28
7074 8841 8843 28
7075 8841 8844 28
7076 8841 8845 28
7077 8846 8847 28
7078 8846 8848 28
7079 8846 8849 28
7080 8846 8850 28
7081 8851 8852 28
7082 8851 8853 28
7083 8851 8854 28
7084 8851 8855 28
7085 8856 8857 28
7086 8856 8858 28
7087 8856 8859 28
7088 8856 8860 28
7089 8861 8862 28
7090 8861 8863 28
7091 8861 8864 28
7092 8861 8865 28
7093 8866 8867 28
7094 8866 8868 28
7095 8866 8869 28
7096 8866 8870 28
7097 8871 8872 28
7098 8871 8873 28
7099 8871 8874 28
7100 8871 8875 28
7101 8876 8877 28
7102 8876 8878 28
7103 8876 8879 28
7104 8876 8880 28
7105 8881 8882 28
7106 8881 8883 28
7107 8881 8884 28
7108 8881 8885 28
7109 8886 8887 28
7110 8886 8888 28
7111 8886 8889 28
7112 8886 8890 28
7113 8891 8892 28
7114 8891 8893 28
7115 8891 8894 28
7116 8891 8895 28
7117 8896 8897 28
7118 8896 8898 28
7119 8896 8899 28
7120 8896 8900 28
7121 8901 8902 28
7122 8901 8903 28
7123 8901 8904 28
7124 8901 8905 28
7125 8906 8907 28
7126 8906 8908 28
7127 8906 8909 28
7128 8906 8910 28
7129 8911 8912 28
7130 8911 8913 28
7131 8911 8914 28
7132 8911 8915 28
7133 8916 8917 28
7134 8916 8918 28
7135 8916 8919 28
7136 8916 8920 28
7137 8921 8922 28
7138 8921 8923 28
7139 8921 8924 28
7140 8921 8925 28
7141 8926 8927 28
7142 8926 8928 28
7143 8926 8929 28
7144 8926 8930 28
7145 8931 8932 28
7146 8931 8933 28
7147 8931 8934 28
7148 8931 8935 28
7149 8936 8937 28
7150 8936 8938 28
7151 8936 8939 28
7152 8936 8940 28
7153 8941 8942 28
7154 8941 8943 28
7155 8941 8944 28
7156 8941 8945 28
7157 8946 8947 28
7158 8946 8948 28
7159 8946 8949 28
7160 8946 8950 28
7161 8951 8952 28
7162 8951 8953 28
7163 8951 8954 28
7164 8951 8955 28
7165 8956 8957 28
7166 8956 8958 28
7167 8956 8959 28
7168 8956 8960 28
7169 8961 8962 28
7170 8961 8963 28
7171 8961 8964 28
7172 8961 8965 28
7173 8966 8967 28
7174 8966 8968 28
7175 8966 8969 28
7176 8966 8970 28
7177 8971 8972 28
7178 8971 8973 28
7179 8971 8974 28
7180 8971 8975 28
7181 8976 8977 28
7182 8976 8978 28
7183 8976 8979 28
7184 8976 8980 28
7185 8981 8982 28
7186 8981 8983 28
7187 8981 8984 28
7188 8981 8985 28
7189 8986 8987 28
7190 8986 8988 28
7191 8986 8989 28
7192 8986 8990 28
7193 8991 8992 28
7194 8991 8993 28
7195 8991 8994 28
7196 8991 8995 28
7197 8996 8997 28
7198 8996 8998 28
7199 8996 8999 28
7200 8996 9000 28
7201 9001 9002 28
7202 9001 9003 28
7203 9001 9004 28
7204 9001 9005 28
7205 9006 9007 28
7206 9006 9008 28
7207 9006 9009 28
7208 9006 9010 28
7209 9011 9012 28
7210 9011 9013 28
7211 9011 9014 28
7212 9011 9015 28
7213 9016 9017 28
7214 9016 9018 28
7215 9016 9019 28
7216 9016 9020 28
7217 9021 9022 28
7218 9021 9023 28
7219 9021 9024 28
7220 9021 9025 28
7221 9026 9027 28
7222 9026 9028 28
7223 9026 9029 28
7224 9026 9030 28
7225 9031 9032 28
7226 9031 9033 28
7227 9031 9034 28
7228 9031 9035 28
7229 9036 9037 28
7230 9036 9038 28
7231 9036 9039 28
7232 9036 9040 28
7233 9041 9042 28
7234 9041 9043 28
7235 9041 9044 28
7236 9041 9045 28
7237 9046 9047 28
7238 9046 9048 28
7239 9046 9049 28
7240 9046 9050 28
7241 9051 9052 28
7242 9051 9053 28
7243 9051 9054 28
7244 9051 9055 28
7245 9056 9057 28
7246 9056 9058 28
7247 9056 9059 28
7248 9056 9060 28
7249 9061 9062 28
7250 9061 9063 28
7251 9061 9064 28
7252 9061 9065 28
7253 9066 9067 28
7254 9066 9068 28
7255 9066 9069 28
7256 9066 9070 28
7257 9071 9072 28
7258 9071 9073 28
7259 9071 9074 28
7260 9071 9075 28
7261 9076 9077 28
7262 9076 9078 28
7263 9076 9079 28
7264 9076 9080 28
7265 9081 9082 28
7266 9081 9083 28
7267 9081 9084 28
7268 9081 9085 28
7269 9086 9087 28
7270 9086 9088 28
7271 9086 9089 28
7272 9086 9090 28
7273 9091 9092 28
7274 9091 9093 28
7275 9091 9094 28
7276 9091 9095 28
7277 9096 9097 28
7278 9096 9098 28
7279 9096 9099 28
7280 9096 9100 28
7281 9101 9102 28
7282 9101 9103 28
7283 9101 9104 28
7284 9101 9105 28
7285 9106 9107 28
7286 9106 9108 28
7287 9106 9109 28
7288 9106 9110 28
7289 9111 9112 28
7290 9111 9113 28
7291 9111 9114 28
7292 9111 9115 28
7293 9116 9117 28
7294 9116 9118 28
7295 9116 9119 28
7296 9116 9120 28
7297 9121 9122 28
7298 9121 9123 28
7299 9121 9124 28
7300 9121 9125 28
7301 9126 9127 28
7302 9126 9128 28
7303 9126 9129 28
7304 9126 9130 28
7305 9131 9132 28
7306 9131 9133 28
7307 9131 9134 28
7308 9131 9135 28
7309 9136 9137 28
7310 9136 9138 28
7311 9136 9139 28
7312 9136 9140 28
7313 9141 9142 28
7314 9141 9143 28
7315 9141 9144 28
7316 9141 9145 28
7317 9146 9147 28
7318 9146 9148 28
7319 9146 9149 28
7320 9146 9150 28
7321 9151 9152 28
7322 9151 9153 28
7323 9151 9154 28
7324 9151 9155 28
7325 9156 9157 28
7326 9156 9158 28
7327 9156 9159 28
7328 9156 9160 28
7329 9161 9162 28
7330 9161 9163 28
7331 9161 9164 28
7332 9161 9165 28
7333 9166 9167 28
7334 9166 9168 28
7335 9166 9169 28
7336 9166 9170 28
7337 9171 9172 28
7338 9171 9173 28
7339 9171 9174 28
7340 9171 9175 28
7341 9176 9177 28
7342 9176 9178 28
7343 9176 9179 28
7344 9176 9180 28
7345 9181 9182 28
7346 9181 9183 28
7347 9181 9184 28
7348 9181 9185 28
7349 9186 9187 28
7350 9186 9188 28
7351 9186 9189 28
7352 9186 9190 28
7353 9191 9192 28
7354 9191 9193 28
7355 9191 9194 28
7356 9191 9195 28
7357 9196 9197 28
7358 9196 9198 28
7359 9196 9199 28
7360 9196 9200 28
7361 9201 9202 28
7362 9201 9203 28
7363 9201 9204 28
7364 9201 9205 28
7365 9206 9207 28
7366 9206 9208 28
7367 9206 9209 28
7368 9206 9210 28
7369 9211 9212 28
7370 9211 9213 28
7371 9211 9214 28
7372 9211 9215 28
7373 9216 9217 28
7374 9216 9218 28
7375 9216 9219 28
7376 9216 9220 28
7377 9221 9222 28
7378 9221 9223 28
7379 9221 9224 28
7380 9221 9225 28
7381 9226 9227 28
7382 9226 9228 28
7383 9226 9229 28
7384 9226 9230 28
7385 9231 9232 28
7386 9231 9233 28
7387 9231 9234 28
7388 9231 9235 28
7389 9236 9237 28
7390 9236 9238 28
7391 9236 9239 28
7392 9236 9240 28
7393 9241 9242 28
7394 9241 9243 28
7395 9241 9244 28
7396 9241 9245 28
7397 9246 9247 28
7398 9246 9248 28
7399 9246 9249 28
7400 9246 9250 28
7401 9251 9252 28
7402 9251 9253 28
7403 9251 9254 28
7404 9251 9255 28
7405 9256 9257 28
7406 9256 9258 28
7407 9256 9259 28
7408 9256 9260 28
7409 9261 9262 28
7410 9261 9263 28
7411 9261 9264 28
7412 9261 9265 28
7413 9266 9267 28
7414 9266 9268 28
7415 9266 9269 28
7416 9266 9270 28
7417 9271 9272 28
7418 9271 9273 28
7419 9271 9274 28
7420 9271 9275 28
7421 9276 9277 28
7422 9276 9278 28
7423 9276 9279 28
7424 9276 9280 28
7425 9281 9282 28
7426 9281 9283 28
7427 9281 9284 28
7428 9281 9285 28
7429 9286 9287 28
7430 9286 9288 28
7431 9286 9289 28
7432 9286 9290 28
7433 9291 9292 28
7434 9291 9293 28
7435 9291 9294 28
7436 9291 9295 28
7437 9296 9297 28
7438 9296 9298 28
7439 9296 9299 28
7440 9296 9300 28
7441 9301 9302 28
7442 9301 9303 28
7443 9301 9304 28
7444 9301 9305 28
7445 9306 9307 28
7446 9306 9308 28
7447 9306 9309 28
7448 9306 9310 28
7449 9311 9312 28
7450 9311 9313 28
7451 9311 9314 28
7452 9311 9315 28
7453 9316 9317 28
7454 9316 9318 28
7455 9316 9319 28
7456 9316 9320 28
7457 9321 9322 28
7458 9321 9323 28
7459 9321 9324 28
7460 9321 9325 28
7461 9326 9327 28
7462 9326 9328 28
7463 9326 9329 28
7464 9326 9330 28
7465 9331 9332 28
7466 9331 9333 28
7467 9331 9334 28
7468 9331 9335 28
7469 9336 9337 28
7470 9336 9338 28
7471 9336 9339 28
7472 9336 9340 28
7473 9341 9342 28
7474 9341 9343 28
7475 9341 9344 28
7476 9341 9345 28
7477 9346 9347 28
7478 9346 9348 28
7479 9346 9349 28
7480 9346 9350 28
7481 9351 9352 28
7482 9351 9353 28
7483 9351 9354 28
7484 9351 9355 28
7485 9356 9357 28
7486 9356 9358 28
7487 9356 9359 28
7488 9356 9360 28
7489 9361 9362 28
7490 9361 9363 28
7491 9361 9364 28
7492 9361 9365 28
7493 9366 9367 28
7494 9366 9368 28
7495 9366 9369 28
7496 9366 9370 28
7497 9371 9372 28
7498 9371 9373 28
7499 9371 9374 28
7500 9371 9375 28
7501 9376 9377 28
7502 9376 9378 28
7503 9376 9379 28
7504 9376 9380 28
7505 9381 9382 28
7506 9381 9383 28
7507 9381 9384 28
7508 9381 9385 28
7509 9386 9387 28
7510 9386 9388 28
7511 9386 9389 28
7512 9386 9390 28
7513 9391 9392 28
7514 9391 9393 28
7515 9391 9394 28
7516 9391 9395 28
7517 9396 9397 28
7518 9396 9398 28
7519 9396 9399 28
7520 9396 9400 28
7521 9401 9402 28
7522 9401 9403 28
7523 9401 9404 28
7524 9401 9405 28
7525 9406 9407 28
7526 9406 9408 28
7527 9406 9409 28
7528 9406 9410 28
7529 9411 9412 28
7530 9411 9413 28
7531 9411 9414 28
7532 9411 9415 28
7533 9416 9417 28
7534 9416 9418 28
7535 9416 9419 28
7536 9416 9420 28
7537 9421 9422 28
7538 9421 9423 28
7539 9421 9424 28
7540 9421 9425 28
7541 9426 9427 28
7542 9426 9428 28
7543 9426 9429 28
7544 9426 9430 28
7545 9431 9432 28
7546 9431 9433 28
7547 9431 9434 28
7548 9431 9435 28
7549 9436 9437 28
7550 9436 9438 28
7551 9436 9439 28
7552 9436 9440 28
7553 9441 9442 28
7554 9441 9443 28
7555 9441 9444 28
7556 9441 9445 28
7557 9446 9447 28
7558 9446 9448 28
7559 9446 9449 28
7560 9446 9450 28
7561 9451 9452 28
7562 9451 9453 28
7563 9451 9454 28
7564 9451 9455 28
7565 9456 9457 28
7566 9456 9458 28
7567 9456 9459 28
7568 9456 9460 28
7569 9461 9462 28
7570 9461 9463 28
7571 9461 9464 28
7572 9461 9465 28
7573 9466 9467 28
7574 9466 9468 28
7575 9466 9469 28
7576 9466 9470 28
7577 9471 9472 28
7578 9471 9473 28
7579 9471 9474 28
7580 9471 9475 28
7581 9476 9477 28
7582 9476 9478 28
7583 9476 9479 28
7584 9476 9480 28
7585 9481 9482 28
7586 9481 9483 28
7587 9481 9484 28
7588 9481 9485 28
7589 9486 9487 28
7590 9486 9488 28
7591 9486 9489 28
7592 9486 9490 28
7593 9491 9492 28
7594 9491 9493 28
7595 9491 9494 28
7596 9491 9495 28
7597 9496 9497 28
7598 9496 9498 28
7599 9496 9499 28
7600 9496 9500 28
7601 9501 9502 28
7602 9501 9503 28
7603 9501 9504 28
7604 9501 9505 28
7605 9506 9507 28
7606 9506 9508 28
7607 9506 9509 28
7608 9506 9510 28
7609 9511 9512 28
7610 9511 9513 28
7611 9511 9514 28
7612 9511 9515 28
7613 9516 9517 28
7614 9516 9518 28
7615 9516 9519 28
7616 9516 9520 28
7617 9521 9522 28
7618 9521 9523 28
7619 9521 9524 28
7620 9521 9525 28
7621 9526 9527 28
7622 9526 9528 28
7623 9526 9529 28
7624 9526 9530 28
7625 9531 9532 28
7626 9531 9533 28
7627 9531 9534 28
7628 9531 9535 28
7629 9536 9537 28
7630 9536 9538 28
7631 9536 9539 28
7632 9536 9540 28
7633 9541 9542 28
7634 9541 9543 28
7635 9541 9544 28
7636 9541 9545 28
7637 9546 9547 28
7638 9546 9548 28
7639 9546 9549 28
7640 9546 9550 28
7641 9551 9552 28
7642 9551 9553 28
7643 9551 9554 28
7644 9551 9555 28
7645 9556 9557 28
7646 9556 9558 28
7647 9556 9559 28
7648 9556 9560 28
7649 9561 9562 28
7650 9561 9563 28
7651 9561 9564 28
7652 9561 9565 28
7653 9566 9567 28
7654 9566 9568 28
7655 9566 9569 28
7656 9566 9570 28
7657 9571 9572 28
7658 9571 9573 28
7659 9571 9574 28
7660 9571 9575 28
7661 9576 9577 28
7662 9576 9578 28
7663 9576 9579 28
7664 9576 9580 28
7665 9581 9582 28
7666 9581 9583 28
7667 9581 9584 28
7668 9581 9585 28
7669 9586 9587 28
7670 9586 9588 28
7671 9586 9589 28
7672 9586 9590 28
7673 9591 9592 28
7674 9591 9593 28
7675 9591 9594 28
7676 9591 9595 28
7677 9596 9597 28
7678 9596 9598 28
7679 9596 9599 28
7680 9596 9600 28
7681 9601 9602 28
7682 9601 9603 28
7683 9601 9604 28
7684 9601 9605 28
7685 9606 9607 28
7686 9606 9608 28
7687 9606 9609 28
7688 9606 9610 28
7689 9611 9612 28
7690 9611 9613 28
7691 9611 9614 28
7692 9611 9615 28
7693 9616 9617 28
7694 9616 9618 28
7695 9616 9619 28
7696 9616 9620 28
7697 9621 9622 28
7698 9621 9623 28
7699 9621 9624 28
7700 9621 9625 28
7701 9626 9627 28
7702 9626 9628 28
7703 9626 9629 28
7704 9626 9630 28
7705 9631 9632 28
7706 9631 9633 28
7707 9631 9634 28
7708 9631 9635 28
7709 9636 9637 28
7710 9636 9638 28
7711 9636 9639 28
7712 9636 9640 28
7713 9641 9642 28
7714 9641 9643 28
7715 9641 9644 28
7716 9641 9645 28
7717 9646 9647 28
7718 9646 9648 28
7719 9646 9649 28
7720 9646 9650 28
7721 9651 9652 28
7722 9651 9653 28
7723 9651 9654 28
7724 9651 9655 28
7725 9656 9657 28
7726 9656 9658 28
7727 9656 9659 28
7728 9656 9660 28
7729 9661 9662 28
7730 9661 9663 28
7731 9661 9664 28
7732 9661 9665 28
7733 9666 9667 28
7734 9666 9668 28
7735 9666 9669 28
7736 9666 9670 28
7737 9671 9672 28
7738 9671 9673 28
7739 9671 9674 28
7740 9671 9675 28
7741 9676 9677 28
7742 9676 9678 28
7743 9676 9679 28
7744 9676 9680 28
7745 9681 9682 28
7746 9681 9683 28
7747 9681 9684 28
7748 9681 9685 28
7749 9686 9687 28
7750 9686 9688 28
7751 9686 9689 28
7752 9686 9690 28
7753 9691 9692 28
7754 9691 9693 28
7755 9691 9694 28
7756 9691 9695 28
7757 9696 9697 28
7758 9696 9698 28
7759 9696 9699 28
7760 9696 9700 28
7761 9701 9702 28
7762 9701 9703 28
7763 9701 9704 28
7764 9701 9705 28
7765 9706 9707 28
7766 9706 9708 28
7767 9706 9709 28
7768 9706 9710 28
7769 9711 9712 28
7770 9711 9713 28
7771 9711 9714 28
7772 9711 9715 28
7773 9716 9717 28
7774 9716 9718 28
7775 9716 9719 28
7776 9716 9720 28
7777 9721 9722 28
7778 9721 9723 28
7779 9721 9724 28
7780 9721 9725 28
7781 9726 9727 28
7782 9726 9728 28
7783 9726 9729 28
7784 9726 9730 28
7785 9731 9732 28
7786 9731 9733 28
7787 9731 9734 28
7788 9731 9735 28
7789 9736 9737 28
7790 9736 9738 28
7791 9736 9739 28
7792 9736 9740 28
7793 9741 9742 28
7794 9741 9743 28
7795 9741 9744 28
7796 9741 9745 28
7797 9746 9747 28
7798 9746 9748 28
7799 9746 9749 28
7800 9746 9750 28
7801 9751 9752 28
7802 9751 9753 28
7803 9751 9754 28
7804 9751 9755 28
7805 9756 9757 28
7806 9756 9758 28
7807 9756 9759 28
7808 9756 9760 28
7809 9761 9762 28
7810 9761 9763 28
7811 9761 9764 28
7812 9761 9765 28
7813 9766 9767 28
7814 9766 9768 28
7815 9766 9769 28
7816 9766 9770 28
7817 9771 9772 28
7818 9771 9773 28
7819 9771 9774 28
7820 9771 9775 28
7821 9776 9777 28
7822 9776 9778 28
7823 9776 9779 28
7824 9776 9780 28
7825 9781 9782 28
7826 9781 9783 28
7827 9781 9784 28
7828 9781 9785 28
7829 9786 9787 28
7830 9786 9788 28
7831 9786 9789 28
7832 9786 9790 28
7833 9791 9792 28
7834 9791 9793 28
7835 9791 9794 28
7836 9791 9795 28
7837 9796 9797 28
7838 9796 9798 28
7839 9796 9799 28
7840 9796 9800 28
7841 9801 9802 28
7842 9801 9803 28
7843 9801 9804 28
7844 9801 9805 28
7845 9806 9807 28
7846 9806 9808 28
7847 9806 9809 28
7848 9806 9810 28
7849 9811 9812 28
7850 9811 9813 28
7851 9811 9814 28
7852 9811 9815 28
7853 9816 9817 28
7854 9816 9818 28
7855 9816 9819 28
7856 9816 9820 28
7857 9821 9822 28
7858 9821 9823 28
7859 9821 9824 28
7860 9821 9825 28
7861 9826 9827 28
7862 9826 9828 28
7863 9826 9829 28
7864 9826 9830 28
7865 9831 9832 28
7866 9831 9833 28
7867 9831 9834 28
7868 9831 9835 28
7869 9836 9837 28
7870 9836 9838 28
7871 9836 9839 28
7872 9836 9840 28
7873 9841 9842 28
7874 9841 9843 28
7875 9841 9844 28
7876 9841 9845 28
7877 9846 9847 28
7878 9846 9848 28
7879 9846 9849 28
7880 9846 9850 28
7881 9851 9852 28
7882 9851 9853 28
7883 9851 9854 28
7884 9851 9855 28
7885 9856 9857 28
7886 9856 9858 28
7887 9856 9859 28
7888 9856 9860 28
7889 9861 9862 28
7890 9861 9863 28
7891 9861 9864 28
7892 9861 9865 28
7893 9866 9867 28
7894 9866 9868 28
7895 9866 9869 28
7896 9866 9870 28
7897 9871 9872 28
7898 9871 9873 28
7899 9871 9874 28
7900 9871 9875 28
7901 9876 9877 28
7902 9876 9878 28
7903 9876 9879 28
7904 9876 9880 28
7905 9881 9882 28
7906 9881 9883 28
7907 9881 9884 28
7908 9881 9885 28
7909 9886 9887 28
7910 9886 9888 28
7911 9886 9889 28
7912 9886 9890 28
7913 9891 9892 28
7914 9891 9893 28
7915 9891 9894 28
7916 9891 9895 28
7917 9896 9897 28
7918 9896 9898 28
7919 9896 9899 28
7920 9896 9900 28
7921 9901 9902 28
7922 9901 9903 28
7923 9901 9904 28
7924 9901 9905 28
7925 9906 9907 28
7926 9906 9908 28
7927 9906 9909 28
7928 9906 9910 28
7929 9911 9912 28
7930 9911 9913 28
7931 9911 9914 28
7932 9911 9915 28
7933 9916 9917 28
7934 9916 9918 28
7935 9916 9919 28
7936 9916 9920 28
7937 9921 9922 28
7938 9921 9923 28
7939 9921 9924 28
7940 9921 9925 28
7941 9926 9927 28
7942 9926 9928 28
7943 9926 9929 28
7944 9926 9930 28
7945 9931 9932 28
7946 9931 9933 28
7947 9931 9934 28
7948 9931 9935 28
7949 9936 9937 28
7950 9936 9938 28
7951 9936 9939 28
7952 9936 9940 28
7953 9941 9942 28
7954 9941 9943 28
7955 9941 9944 28
7956 9941 9945 28
7957 9946 9947 28
7958 9946 9948 28
7959 9946 9949 28
7960 9946 9950 28
7961 9951 9952 28
7962 9951 9953 28
7963 9951 9954 28
7964 9951 9955 28
7965 9956 9957 28
7966 9956 9958 28
7967 9956 9959 28
7968 9956 9960 28
7969 9961 9962 28
7970 9961 9963 28
7971 9961 9964 28
7972 9961 9965 28
7973 9966 9967 28
7974 9966 9968 28
7975 9966 9969 28
7976 9966 9970 28
7977 9971 9972 28
7978 9971 9973 28
7979 9971 9974 28
7980 9971 9975 28
7981 9976 9977 28
7982 9976 9978 28
7983 9976 9979 28
7984 9976 9980 28
7985 9981 9982 28
7986 9981 9983 28
7987 9981 9984 28
7988 9981 9985 28
7989 9986 9987 28
7990 9986 9988 28
7991 9986 9989 28
7992 9986 9990 28
7993 9991 9992 28
7994 9991 9993 28
7995 9991 9994 28
7996 9991 9995 28
7997 9996 9997 28
7998 9996 9998 28
7999 9996 9999 28
8000 9996 10000 28
8001 10001 10002 28
8002 10001 10003 28
8003 10001 10004 28
8004 10001 10005 28
8005 10006 10007 28
8006 10006 10008 28
8007 10006 10009 28
8008 10006 10010 28
8009 10011 10012 28
8010 10011 10013 28
8011 10011 10014 28
8012 10011 10015 28
8013 10016 10017 28
8014 10016 10018 28
8015 10016 10019 28
8016 10016 10020 28
8017 10021 10022 28
8018 10021 10023 28
8019 10021 10024 28
8020 10021 10025 28
8021 10026 10027 28
8022 10026 10028 28
8023 10026 10029 28
8024 10026 10030 28
8025 10031 10032 28
8026 10031 10033 28
8027 10031 10034 28
8028 10031 10035 28
8029 10036 10037 28
8030 10036 10038 28
8031 10036 10039 28
8032 10036 10040 28
8033 10041 10042 28
8034 10041 10043 28
8035 10041 10044 28
8036 10041 10045 28
8037 10046 10047 28
8038 10046 10048 28
8039 10046 10049 28
8040 10046 10050 28
8041 10051 10052 28
8042 10051 10053 28
8043 10051 10054 28
8044 10051 10055 28
8045 10056 10057 28
8046 10056 10058 28
8047 10056 10059 28
8048 10056 10060 28
8049 10061 10062 28
8050 10061 10063 28
8051 10061 10064 28
8052 10061 10065 28
8053 10066 10067 28
8054 10066 10068 28
8055 10066 10069 28
8056 10066 10070 28
8057 10071 10072 28
8058 10071 10073 28
8059 10071 10074 28
8060 10071 10075 28
8061 10076 10077 28
8062 10076 10078 28
8063 10076 10079 28
8064 10076 10080 28
8065 10081 10082 28
8066 10081 10083 28
8067 10081 10084 28
8068 10081 10085 28
8069 10086 10087 28
8070 10086 10088 28
8071 10086 10089 28
8072 10086 10090 28
8073 10091 10092 28
8074 10091 10093 28
8075 10091 10094 28
8076 10091 10095 28
8077 10096 10097 28
8078 10096 10098 28
8079 10096 10099 28
8080 10096 10100 28
8081 10101 10102 28
8082 10101 10103 28
8083 10101 10104 28
8084 10101 10105 28
8085 10106 10107 28
8086 10106 10108 28
8087 10106 10109 28
8088 10106 10110 28
8089 10111 10112 28
8090 10111 10113 28
8091 10111 10114 28
8092 10111 10115 28
8093 10116 10117 28
8094 10116 10118 28
8095 10116 10119 28
8096 10116 10120 28
8097 10121 10122 28
8098 10121 10123 28
8099 10121 10124 28
8100 10121 10125 28
8101 10126 10127 28
8102 10126 10128 28
8103 10126 10129 28
8104 10126 10130 28
8105 10131 10132 28
8106 10131 10133 28
8107 10131 10134 28
8108 10131 10135 28
8109 10136 10137 28
8110 10136 10138 28
8111 10136 10139 28
8112 10136 10140 28
8113 10141 10142 28
8114 10141 10143 28
8115 10141 10144 28
8116 10141 10145 28
8117 10146 10147 28
8118 10146 10148 28
8119 10146 10149 28
8120 10146 10150 28
8121 10151 10152 28
8122 10151 10153 28
8123 10151 10154 28
8124 10151 10155 28
8125 10156 10157 28
8126 10156 10158 28
8127 10156 10159 28
8128 10156 10160 28
8129 10161 10162 28
8130 10161 10163 28
8131 10161 10164 28
8132 10161 10165 28
8133 10166 10167 28
8134 10166 10168 28
8135 10166 10169 28
8136 10166 10170 28
8137 10171 10172 28
8138 10171 10173 28
8139 10171 10174 28
8140 10171 10175 28
8141 10176 10177 28
8142 10176 10178 28
8143 10176 10179 28
8144 10176 10180 28
8145 10181 10182 28
8146 10181 10183 28
8147 10181 10184 28
8148 10181 10185 28
8149 10186 10187 28
8150 10186 10188 28
8151 10186 10189 28
8152 10186 10190 28
8153 10191 10192 28
8154 10191 10193 28
8155 10191 10194 28
8156 10191 10195 28
8157 10196 10197 28
8158 10196 10198 28
8159 10196 10199 28
8160 10196 10200 28
8161 10201 10202 28
8162 10201 10203 28
8163 10201 10204 28
8164 10201 10205 28
8165 10206 10207 28
8166 10206 10208 28
8167 10206 10209 28
8168 10206 10210 28
8169 10211 10212 28
8170 10211 10213 28
8171 10211 10214 28
8172 10211 10215 28
8173 10216 10217 28
8174 10216 10218 28
8175 10216 10219 28
8176 10216 10220 28
8177 10221 10222 28
8178 10221 10223 28
8179 10221 10224 28
8180 10221 10225 28
8181 10226 10227 28
8182 10226 10228 28
8183 10226 10229 28
8184 10226 10230 28
8185 10231 10232 28
8186 10231 10233 28
8187 10231 10234 28
8188 10231 10235 28
8189 10236 10237 28
8190 10236 10238 28
8191 10236 10239 28
8192 10236 10240 28
8193 10241 10242 28
8194 10241 10243 28
8195 10241 10244 28
8196 10241 10245 28
8197 10246 10247 28
8198 10246 10248 28
8199 10246 10249 28
8200 10246 10250 28
8201 10251 10252 28
8202 10251 10253 28
8203 10251 10254 28
8204 10251 10255 28
8205 10256 10257 28
8206 10256 10258 28
8207 10256 10259 28
8208 10256 10260 28
8209 10261 10262 28
8210 10261 10263 28
8211 10261 10264 28
8212 10261 10265 28
8213 10266 10267 28
8214 10266 10268 28
8215 10266 10269 28
8216 10266 10270 28
8217 10271 10272 28
8218 10271 10273 28
8219 10271 10274 28
8220 10271 10275 28
8221 10276 10277 28
8222 10276 10278 28
8223 10276 10279 28
8224 10276 10280 28
8225 10281 10282 28
8226 10281 10283 28
8227 10281 10284 28
8228 10281 10285 28
8229 10286 10287 28
8230 10286 10288 28
8231 10286 10289 28
8232 10286 10290 28
8233 10291 10292 28
8234 10291 10293 28
8235 10291 10294 28
8236 10291 10295 28
8237 10296 10297 28
8238 10296 10298 28
8239 10296 10299 28
8240 10296 10300 28
8241 10301 10302 28
8242 10301 10303 28
8243 10301 10304 28
8244 10301 10305 28
8245 10306 10307 28
8246 10306 10308 28
8247 10306 10309 28
8248 10306 10310 28
8249 10311 10312 28
8250 10311 10313 28
8251 10311 10314 28
8252 10311 10315 28
8253 10316 10317 28
8254 10316 10318 28
8255 10316 10319 28
8256 10316 10320 28
8257 10321 10322 28
8258 10321 10323 28
8259 10321 10324 28
8260 10321 10325 28
8261 10326 10327 28
8262 10326 10328 28
8263 10326 10329 28
8264 10326 10330 28
8265 10331 10332 28
8266 10331 10333 28
8267 10331 10334 28
8268 10331 10335 28
8269 10336 10337 28
8270 10336 10338 28
8271 10336 10339 28
8272 10336 10340 28
8273 10341 10342 28
8274 10341 10343 28
8275 10341 10344 28
8276 10341 10345 28
8277 10346 10347 28
8278 10346 10348 28
8279 10346 10349 28
8280 10346 10350 28
8281 10351 10352 28
8282 10351 10353 28
8283 10351 10354 28
8284 10351 10355 28
8285 10356 10357 28
8286 10356 10358 28
8287 10356 10359 28
8288 10356 10360 28
8289 10361 10362 28
8290 10361 10363 28
8291 10361 10364 28
8292 10361 10365 28
8293 10366 10367 28
8294 10366 10368 28
8295 10366 10369 28
8296 10366 10370 28
8297 10371 10372 28
8298 10371 10373 28
8299 10371 10374 28
8300 10371 10375 28
8301 10376 10377 28
8302 10376 10378 28
8303 10376 10379 28
8304 10376 10380 28
8305 10381 10382 28
8306 10381 10383 28
8307 10381 10384 28
8308 10381 10385 28
8309 10386 10387 28
8310 10386 10388 28
8311 10386 10389 28
8312 10386 10390 28
8313 10391 10392 28
8314 10391 10393 28
8315 10391 10394 28
8316 10391 10395 28
8317 10396 10397 28
8318 10396 10398 28
8319 10396 10399 28
8320 10396 10400 28
8321 10401 10402 28
8322 10401 10403 28
8323 10401 10404 28
8324 10401 10405 28
8325 10406 10407 28
8326 10406 10408 28
8327 10406 10409 28
8328 10406 10410 28
8329 10411 10412 28
8330 10411 10413 28
8331 10411 10414 28
8332 10411 10415 28
8333 10416 10417 28
8334 10416 10418 28
8335 10416 10419 28
8336 10416 10420 28
8337 10421 10422 28
8338 10421 10423 28
8339 10421 10424 28
8340 10421 10425 28
8341 10426 10427 28
8342 10426 10428 28
8343 10426 10429 28
8344 10426 10430 28
8345 10431 10432 28
8346 10431 10433 28
8347 10431 10434 28
8348 10431 10435 28
8349 10436 10437 28
8350 10436 10438 28
8351 10436 10439 28
8352 10436 10440 28
8353 10441 10442 28
8354 10441 10443 28
8355 10441 10444 28
8356 10441 10445 28
8357 10446 10447 28
8358 10446 10448 28
8359 10446 10449 28
8360 10446 10450 28
8361 10451 10452 28
8362 10451 10453 28
8363 10451 10454 28
8364 10451 10455 28
8365 10456 10457 28
8366 10456 10458 28
8367 10456 10459 28
8368 10456 10460 28
8369 10461 10462 28
8370 10461 10463 28
8371 10461 10464 28
8372 10461 10465 28
8373 10466 10467 28
8374 10466 10468 28
8375 10466 10469 28
8376 10466 10470 28
8377 10471 10472 28
8378 10471 10473 28
8379 10471 10474 28
8380 10471 10475 28
8381 10476 10477 28
8382 10476 10478 28
8383 10476 10479 28
8384 10476 10480 28
8385 10481 10482 28
8386 10481 10483 28
8387 10481 10484 28
8388 10481 10485 28
8389 10486 10487 28
8390 10486 10488 28
8391 10486 10489 28
8392 10486 10490 28
8393 10491 10492 28
8394 10491 10493 28
8395 10491 10494 28
8396 10491 10495 28
8397 10496 10497 28
8398 10496 10498 28
8399 10496 10499 28
8400 10496 10500 28
8401 10501 10502 28
8402 10501 10503 28
8403 10501 10504 28
8404 10501 10505 28
8405 10506 10507 28
8406 10506 10508 28
8407 10506 10509 28
8408 10506 10510 28
8409 10511 10512 28
8410 10511 10513 28
8411 10511 10514 28
8412 10511 10515 28
8413 10516 10517 28
8414 10516 10518 28
8415 10516 10519 28
8416 10516 10520 28
8417 10521 10522 28
8418 10521 10523 28
8419 10521 10524 28
8420 10521 10525 28
8421 10526 10527 28
8422 10526 10528 28
8423 10526 10529 28
8424 10526 10530 28
8425 10531 10532 28
8426 10531 10533 28
8427 10531 10534 28
8428 10531 10535 28
8429 10536 10537 28
8430 10536 10538 28
8431 10536 10539 28
8432 10536 10540 28
8433 10541 10542 28
8434 10541 10543 28
8435 10541 10544 28
8436 10541 10545 28
8437 10546 10547 28
8438 10546 10548 28
8439 10546 10549 28
8440 10546 10550 28
8441 10551 10552 28
8442 10551 10553 28
8443 10551 10554 28
8444 10551 10555 28
8445 10556 10557 28
8446 10556 10558 28
8447 10556 10559 28
8448 10556 10560 28
8449 10561 10562 28
8450 10561 10563 28
8451 10561 10564 28
8452 10561 10565 28
8453 10566 10567 28
8454 10566 10568 28
8455 10566 10569 28
8456 10566 10570 28
8457 10571 10572 28
8458 10571 10573 28
8459 10571 10574 28
8460 10571 10575 28
8461 10576 10577 28
8462 10576 10578 28
8463 10576 10579 28
8464 10576 10580 28
8465 10581 10582 28
8466 10581 10583 28
8467 10581 10584 28
8468 10581 10585 28
8469 10586 10587 28
8470 10586 10588 28
8471 10586 10589 28
8472 10586 10590 28
8473 10591 10592 28
8474 10591 10593 28
8475 10591 10594 28
8476 10591 10595 28
8477 10596 10597 28
8478 10596 10598 28
8479 10596 10599 28
8480 10596 10600 28
8481 10601 10602 28
8482 10601 10603 28
8483 10601 10604 28
8484 10601 10605 28
8485 10606 10607 28
8486 10606 10608 28
8487 10606 10609 28
8488 10606 10610 28
8489 10611 10612 28
8490 10611 10613 28
8491 10611 10614 28
8492 10611 10615 28
8493 10616 10617 28
8494 10616 10618 28
8495 10616 10619 28
8496 10616 10620 28
8497 10621 10622 28
8498 10621 10623 28
8499 10621 10624 28
8500 10621 10625 28
8501 10626 10627 28
8502 10626 10628 28
8503 10626 10629 28
8504 10626 10630 28
8505 10631 10632 28
8506 10631 10633 28
8507 10631 10634 28
8508 10631 10635 28
8509 10636 10637 28
8510 10636 10638 28
8511 10636 10639 28
8512 10636 10640 28
8513 10641 10642 28
8514 10641 10643 28
8515 10641 10644 28
8516 10641 10645 28
8517 10646 10647 28
8518 10646 10648 28
8519 10646 10649 28
8520 10646 10650 28
8521 10651 10652 28
8522 10651 10653 28
8523 10651 10654 28
8524 10651 10655 28
8525 10656 10657 28
8526 10656 10658 28
8527 10656 10659 28
8528 10656 10660 28
8529 10661 10662 28
8530 10661 10663 28
8531 10661 10664 28
8532 10661 10665 28
8533 10666 10667 28
8534 10666 10668 28
8535 10666 10669 28
8536 10666 10670 28
8537 10671 10672 28
8538 10671 10673 28
8539 10671 10674 28
8540 10671 10675 28
8541 10676 10677 28
8542 10676 10678 28
8543 10676 10679 28
8544 10676 10680 28
8545 10681 10682 28
8546 10681 10683 28
8547 10681 10684 28
8548 10681 10685 28
8549 10686 10687 28
8550 10686 10688 28
8551 10686 10689 28
8552 10686 10690 28
8553 10691 10692 28
8554 10691 10693 28
8555 10691 10694 28
8556 10691 10695 28
8557 10696 10697 28
8558 10696 10698 28
8559 10696 10699 28
8560 10696 10700 28
8561 10701 10702 28
8562 10701 10703 28
8563 10701 10704 28
8564 10701 10705 28
8565 10706 10707 28
8566 10706 10708 28
8567 10706 10709 28
8568 10706 10710 28
8569 10711 10712 28
8570 10711 10713 28
8571 10711 10714 28
8572 10711 10715 28
8573 10716 10717 28
8574 10716 10718 28
8575 10716 10719 28
8576 10716 10720 28
8577 10721 10722 28
8578 10721 10723 28
8579 10721 10724 28
8580 10721 10725 28
8581 10726 10727 28
8582 10726 10728 28
8583 10726 10729 28
8584 10726 10730 28
8585 10731 10732 28
8586 10731 10733 28
8587 10731 10734 28
8588 10731 10735 28
8589 10736 10737 28
8590 10736 10738 28
8591 10736 10739 28
8592 10736 10740 28
8593 10741 10742 28
8594 10741 10743 28
8595 10741 10744 28
8596 10741 10745 28
8597 10746 10747 28
8598 10746 10748 28
8599 10746 10749 28
8600 10746 10750 28
8601 10751 10752 28
8602 10751 10753 28
8603 10751 10754 28
8604 10751 10755 28
8605 10756 10757 28
8606 10756 10758 28
8607 10756 10759 28
8608 10756 10760 28
8609 10761 10762 28
8610 10761 10763 28
8611 10761 10764 28
8612 10761 10765 28
8613 10766 10767 28
8614 10766 10768 28
8615 10766 10769 28
8616 10766 10770 28
8617 10771 10772 28
8618 10771 10773 28
8619 10771 10774 28
8620 10771 10775 28
8621 10776 10777 28
8622 10776 10778 28
8623 10776 10779 28
8624 10776 10780 28
8625 10781 10782 28
8626 10781 10783 28
8627 10781 10784 28
8628 10781 10785 28
8629 10786 10787 28
8630 10786 10788 28
8631 10786 10789 28
8632 10786 10790 28
8633 10791 10792 28
8634 10791 10793 28
8635 10791 10794 28
8636 10791 10795 28
8637 10796 10797 28
8638 10796 10798 28
8639 10796 10799 28
8640 10796 10800 28
8641 10801 10802 28
8642 10801 10803 28
8643 10801 10804 28
8644 10801 10805 28
8645 10806 10807 28
8646 10806 10808 28
8647 10806 10809 28
8648 10806 10810 28
8649 10811 10812 28
8650 10811 10813 28
8651 10811 10814 28
8652 10811 10815 28
8653 10816 10817 28
8654 10816 10818 28
8655 10816 10819 28
8656 10816 10820 28
8657 10821 10822 28
8658 10821 10823 28
8659 10821 10824 28
8660 10821 10825 28
8661 10826 10827 28
8662 10826 10828 28
8663 10826 10829 28
8664 10826 10830 28
8665 10831 10832 28
8666 10831 10833 28
8667 10831 10834 28
8668 10831 10835 28
8669 10836 10837 28
8670 10836 10838 28
8671 10836 10839 28
8672 10836 10840 28
8673 10841 10842 28
8674 10841 10843 28
8675 10841 10844 28
8676 10841 10845 28
8677 10846 10847 28
8678 10846 10848 28
8679 10846 10849 28
8680 10846 10850 28
8681 10851 10852 28
8682 10851 10853 28
8683 10851 10854 28
8684 10851 10855 28
8685 10856 10857 28
8686 10856 10858 28
8687 10856 10859 28
8688 10856 10860 28
8689 10861 10862 28
8690 10861 10863 28
8691 10861 10864 28
8692 10861 10865 28
8693 10866 10867 28
8694 10866 10868 28
8695 10866 10869 28
8696 10866 10870 28
8697 10871 10872 28
8698 10871 10873 28
8699 10871 10874 28
8700 10871 10875 28
8701 10876 10877 28
8702 10876 10878 28
8703 10876 10879 28
8704 10876 10880 28
8705 10881 10882 28
8706 10881 10883 28
8707 10881 10884 28
8708 10881 10885 28
8709 10886 10887 28
8710 10886 10888 28
8711 10886 10889 28
8712 10886 10890 28
8713 10891 10892 28
8714 10891 10893 28
8715 10891 10894 28
8716 10891 10895 28
8717 10896 10897 28
8718 10896 10898 28
8719 10896 10899 28
8720 10896 10900 28
8721 10901 10902 28
8722 10901 10903 28
8723 10901 10904 28
8724 10901 10905 28
8725 10906 10907 28
8726 10906 10908 28
8727 10906 10909 28
8728 10906 10910 28
8729 10911 10912 28
8730 10911 10913 28
8731 10911 10914 28
8732 10911 10915 28
8733 10916 10917 28
8734 10916 10918 28
8735 10916 10919 28
8736 10916 10920 28
8737 10921 10922 28
8738 10921 10923 28
8739 10921 10924 28
8740 10921 10925 28
8741 10926 10927 28
8742 10926 10928 28
8743 10926 10929 28
8744 10926 10930 28
8745 10931 10932 28
8746 10931 10933 28
8747 10931 10934 28
8748 10931 10935 28
8749 10936 10937 28
8750 10936 10938 28
8751 10936 10939 28
8752 10936 10940 28
8753 10941 10942 28
8754 10941 10943 28
8755 10941 10944 28
8756 10941 10945 28
8757 10946 10947 28
8758 10946 10948 28
8759 10946 10949 28
8760 10946 10950 28
8761 10951 10952 28
8762 10951 10953 28
8763 10951 10954 28
8764 10951 10955 28
8765 10956 10957 28
8766 10956 10958 28
8767 10956 10959 28
8768 10956 10960 28
8769 10961 10962 28
8770 10961 10963 28
8771 10961 10964 28
8772 10961 10965 28
8773 10966 10967 28
8774 10966 10968 28
8775 10966 10969 28
8776 10966 10970 28
8777 10971 10972 28
8778 10971 10973 28
8779 10971 10974 28
8780 10971 10975 28
8781 10976 10977 28
8782 10976 10978 28
8783 10976 10979 28
8784 10976 10980 28
8785 10981 10982 28
8786 10981 10983 28
8787 10981 10984 28
8788 10981 10985 28
8789 10986 10987 28
8790 10986 10988 28
8791 10986 10989 28
8792 10986 10990 28
8793 10991 10992 28
8794 10991 10993 28
8795 10991 10994 28
8796 10991 10995 28
8797 10996 10997 28
8798 10996 10998 28
8799 10996 10999 28
8800 10996 11000 28
8801 11001 11002 28
8802 11001 11003 28
8803 11001 11004 28
8804 11001 11005 28
8805 11006 11007 28
8806 11006 11008 28
8807 11006 11009 28
8808 11006 11010 28
8809 11011 11012 28
8810 11011 11013 28
8811 11011 11014 28
8812 11011 11015 28
8813 11016 11017 28
8814 11016 11018 28
8815 11016 11019 28
8816 11016 11020 28
8817 11021 11022 28
8818 11021 11023 28
8819 11021 11024 28
8820 11021 11025 28
8821 11026 11027 28
8822 11026 11028 28
8823 11026 11029 28
8824 11026 11030 28
8825 11031 11032 28
8826 11031 11033 28
8827 11031 11034 28
8828 11031 11035 28
8829 11036 11037 28
8830 11036 11038 28
8831 11036 11039 28
8832 11036 11040 28
8833 11041 11042 28
8834 11041 11043 28
8835 11041 11044 28
8836 11041 11045 28
8837 11046 11047 28
8838 11046 11048 28
8839 11046 11049 28
8840 11046 11050 28
8841 11051 11052 28
8842 11051 11053 28
8843 11051 11054 28
8844 11051 11055 28
8845 11056 11057 28
8846 11056 11058 28
8847 11056 11059 28
8848 11056 11060 28
8849 11061 11062 28
8850 11061 11063 28
8851 11061 11064 28
8852 11061 11065 28
8853 11066 11067 28
8854 11066 11068 28
8855 11066 11069 28
8856 11066 11070 28
8857 11071 11072 28
8858 11071 11073 28
8859 11071 11074 28
8860 11071 11075 28
8861 11076 11077 28
8862 11076 11078 28
8863 11076 11079 28
8864 11076 11080 28
8865 11081 11082 28
8866 11081 11083 28
8867 11081 11084 28
8868 11081 11085 28
8869 11086 11087 28
8870 11086 11088 28
8871 11086 11089 28
8872 11086 11090 28
8873 11091 11092 28
8874 11091 11093 28
8875 11091 11094 28
8876 11091 11095 28
8877 11096 11097 28
8878 11096 11098 28
8879 11096 11099 28
8880 11096 11100 28
8881 11101 11102 28
8882 11101 11103 28
8883 11101 11104 28
8884 11101 11105 28
8885 11106 11107 28
8886 11106 11108 28
8887 11106 11109 28
8888 11106 11110 28
8889 11111 11112 28
8890 11111 11113 28
8891 11111 11114 28
8892 11111 11115 28
8893 11116 11117 28
8894 11116 11118 28
8895 11116 11119 28
8896 11116 11120 28
8897 11121 11122 28
8898 11121 11123 28
8899 11121 11124 28
8900 11121 11125 28
8901 11126 11127 28
8902 11126 11128 28
8903 11126 11129 28
8904 11126 11130 28
8905 11131 11132 28
8906 11131 11133 28
8907 11131 11134 28
8908 11131 11135 28
8909 11136 11137 28
8910 11136 11138 28
8911 11136 11139 28
8912 11136 11140 28
8913 11141 11142 28
8914 11141 11143 28
8915 11141 11144 28
8916 11141 11145 28
8917 11146 11147 28
8918 11146 11148 28
8919 11146 11149 28
8920 11146 11150 28
8921 11151 11152 28
8922 11151 11153 28
8923 11151 11154 28
8924 11151 11155 28
8925 11156 11157 28
8926 11156 11158 28
8927 11156 11159 28
8928 11156 11160 28
8929 11161 11162 28
8930 11161 11163 28
8931 11161 11164 28
8932 11161 11165 28
8933 11166 11167 28
8934 11166 11168 28
8935 11166 11169 28
8936 11166 11170 28
8937 11171 11172 28
8938 11171 11173 28
8939 11171 11174 28
8940 11171 11175 28
8941 11176 11177 28
8942 11176 11178 28
8943 11176 11179 28
8944 11176 11180 28
8945 11181 11182 28
8946 11181 11183 28
8947 11181 11184 28
8948 11181 11185 28
8949 11186 11187 28
8950 11186 11188 28
8951 11186 11189 28
8952 11186 11190 28
8953 11191 11192 28
8954 11191 11193 28
8955 11191 11194 28
8956 11191 11195 28
8957 11196 11197 28
8958 11196 11198 28
8959 11196 11199 28
8960 11196 11200 28
8961 11201 11202 28
8962 11201 11203 28
8963 11201 11204 28
8964 11201 11205 28
8965 11206 11207 28
8966 11206 11208 28
8967 11206 11209 28
8968 11206 11210 28
8969 11211 11212 28
8970 11211 11213 28
8971 11211 11214 28
8972 11211 11215 28
8973 11216 11217 28
8974 11216 11218 28
8975 11216 11219 28
8976 11216 11220 28
8977 11221 11222 28
8978 11221 11223 28
8979 11221 11224 28
8980 11221 11225 28
8981 11226 11227 28
8982 11226 11228 28
8983 11226 11229 28
8984 11226 11230 28
8985 11231 11232 28
8986 11231 11233 28
8987 11231 11234 28
8988 11231 11235 28
8989 11236 11237 28
8990 11236 11238 28
8991 11236 11239 28
8992 11236 11240 28
8993 11241 11242 28
8994 11241 11243 28
8995 11241 11244 28
8996 11241 11245 28
8997 11246 11247 28
8998 11246 11248 28
8999 11246 11249 28
9000 11246 11250 28
9001 11251 11252 28
9002 11251 11253 28
9003 11251 11254 28
9004 11251 11255 28
9005 11256 11257 28
9006 11256 11258 28
9007 11256 11259 28
9008 11256 11260 28
9009 11261 11262 28
9010 11261 11263 28
9011 11261 11264 28
9012 11261 11265 28
9013 11266 11267 28
9014 11266 11268 28
9015 11266 11269 28
9016 11266 11270 28
9017 11271 11272 28
9018 11271 11273 28
9019 11271 11274 28
9020 11271 11275 28
9021 11276 11277 28
9022 11276 11278 28
9023 11276 11279 28
9024 11276 11280 28
9025 11281 11282 28
9026 11281 11283 28
9027 11281 11284 28
9028 11281 11285 28
9029 11286 11287 28
9030 11286 11288 28
9031 11286 11289 28
9032 11286 11290 28
9033 11291 11292 28
9034 11291 11293 28
9035 11291 11294 28
9036 11291 11295 28
9037 11296 11297 28
9038 11296 11298 28
9039 11296 11299 28
9040 11296 11300 28
9041 11301 11302 28
9042 11301 11303 28
9043 11301 11304 28
9044 11301 11305 28
9045 11306 11307 28
9046 11306 11308 28
9047 11306 11309 28
9048 11306 11310 28
9049 11311 11312 28
9050 11311 11313 28
9051 11311 11314 28
9052 11311 11315 28
9053 11316 11317 28
9054 11316 11318 28
9055 11316 11319 28
9056 11316 11320 28
9057 11321 11322 28
9058 11321 11323 28
9059 11321 11324 28
9060 11321 11325 28
9061 11326 11327 28
9062 11326 11328 28
9063 11326 11329 28
9064 11326 11330 28
9065 11331 11332 28
9066 11331 11333 28
9067 11331 11334 28
9068 11331 11335 28
9069 11336 11337 28
9070 11336 11338 28
9071 11336 11339 28
9072 11336 11340 28
9073 11341 11342 28
9074 11341 11343 28
9075 11341 11344 28
9076 11341 11345 28
9077 11346 11347 28
9078 11346 11348 28
9079 11346 11349 28
9080 11346 11350 28
9081 11351 11352 28
9082 11351 11353 28
9083 11351 11354 28
9084 11351 11355 28
9085 11356 11357 28
9086 11356 11358 28
9087 11356 11359 28
9088 11356 11360 28
9089 11361 11362 28
9090 11361 11363 28
9091 11361 11364 28
9092 11361 11365 28
9093 11366 11367 28
9094 11366 11368 28
9095 11366 11369 28
9096 11366 11370 28
9097 11371 11372 28
9098 11371 11373 28
9099 11371 11374 28
9100 11371 11375 28
9101 11376 11377 28
9102 11376 11378 28
9103 11376 11379 28
9104 11376 11380 28
9105 11381 11382 28
9106 11381 11383 28
9107 11381 11384 28
9108 11381 11385 28
9109 11386 11387 28
9110 11386 11388 28
9111 11386 11389 28
9112 11386 11390 28
9113 11391 11392 28
9114 11391 11393 28
9115 11391 11394 28
9116 11391 11395 28
9117 11396 11397 28
9118 11396 11398 28
9119 11396 11399 28
9120 11396 11400 28
9121 11401 11402 28
9122 11401 11403 28
9123 11401 11404 28
9124 11401 11405 28
9125 11406 11407 28
9126 11406 11408 28
9127 11406 11409 28
9128 11406 11410 28
9129 11411 11412 28
9130 11411 11413 28
9131 11411 11414 28
9132 11411 11415 28
9133 11416 11417 28
9134 11416 11418 28
9135 11416 11419 28
9136 11416 11420 28
9137 11421 11422 28
9138 11421 11423 28
9139 11421 11424 28
9140 11421 11425 28
9141 11426 11427 28
9142 11426 11428 28
9143 11426 11429 28
9144 11426 11430 28
9145 11431 11432 28
9146 11431 11433 28
9147 11431 11434 28
9148 11431 11435 28
9149 11436 11437 28
9150 11436 11438 28
9151 11436 11439 28
9152 11436 11440 28
9153 11441 11442 28
9154 11441 11443 28
9155 11441 11444 28
9156 11441 11445 28
9157 11446 11447 28
9158 11446 11448 28
9159 11446 11449 28
9160 11446 11450 28
9161 11451 11452 28
9162 11451 11453 28
9163 11451 11454 28
9164 11451 11455 28
9165 11456 11457 28
9166 11456 11458 28
9167 11456 11459 28
9168 11456 11460 28
9169 11461 11462 28
9170 11461 11463 28
9171 11461 11464 28
9172 11461 11465 28
9173 11466 11467 28
9174 11466 11468 28
9175 11466 11469 28
9176 11466 11470 28
9177 11471 11472 28
9178 11471 11473 28
9179 11471 11474 28
9180 11471 11475 28
9181 11476 11477 28
9182 11476 11478 28
9183 11476 11479 28
9184 11476 11480 28
9185 11481 11482 28
9186 11481 11483 28
9187 11481 11484 28
9188 11481 11485 28
9189 11486 11487 28
9190 11486 11488 28
9191 11486 11489 28
9192 11486 11490 28
9193 11491 11492 28
9194 11491 11493 28
9195 11491 11494 28
9196 11491 11495 28
9197 11496 11497 28
9198 11496 11498 28
9199 11496 11499 28
9200 11496 11500 28
9201 11501 11502 28
9202 11501 11503 28
9203 11501 11504 28
9204 11501 11505 28
9205 11506 11507 28
9206 11506 11508 28
9207 11506 11509 28
9208 11506 11510 28
9209 11511 11512 28
9210 11511 11513 28
9211 11511 11514 28
9212 11511 11515 28
9213 11516 11517 28
9214 11516 11518 28
9215 11516 11519 28
9216 11516 11520 28
9217 11521 11522 28
9218 11521 11523 28
9219 11521 11524 28
9220 11521 11525 28
9221 11526 11527 28
9222 11526 11528 28
9223 11526 11529 28
9224 11526 11530 28
9225 11531 11532 28
9226 11531 11533 28
9227 11531 11534 28
9228 11531 11535 28
9229 11536 11537 28
9230 11536 11538 28
9231 11536 11539 28
9232 11536 11540 28
9233 11541 11542 28
9234 11541 11543 28
9235 11541 11544 28
9236 11541 11545 28
9237 11546 11547 28
9238 11546 11548 28
9239 11546 11549 28
9240 11546 11550 28
9241 11551 11552 28
9242 11551 11553 28
9243 11551 11554 28
9244 11551 11555 28
9245 11556 11557 28
9246 11556 11558 28
9247 11556 11559 28
9248 11556 11560 28
9249 11561 11562 28
9250 11561 11563 28
9251 11561 11564 28
9252 11561 11565 28
9253 11566 11567 28
9254 11566 11568 28
9255 11566 11569 28
9256 11566 11570 28
9257 11571 11572 28
9258 11571 11573 28
9259 11571 11574 28
9260 11571 11575 28
9261 11576 11577 28
9262 11576 11578 28
9263 11576 11579 28
9264 11576 11580 28
9265 11581 11582 28
9266 11581 11583 28
9267 11581 11584 28
9268 11581 11585 28
9269 11586 11587 28
9270 11586 11588 28
9271 11586 11589 28
9272 11586 11590 28
9273 11591 11592 28
9274 11591 11593 28
9275 11591 11594 28
9276 11591 11595 28
9277 11596 11597 28
9278 11596 11598 28
9279 11596 11599 28
9280 11596 11600 28
9281 11601 11602 28
9282 11601 11603 28
9283 11601 11604 28
9284 11601 11605 28
9285 11606 11607 28
9286 11606 11608 28
9287 11606 11609 28
9288 11606 11610 28
9289 11611 11612 28
9290 11611 11613 28
9291 11611 11614 28
9292 11611 11615 28
9293 11616 11617 28
9294 11616 11618 28
9295 11616 11619 28
9296 11616 11620 28
9297 11621 11622 28
9298 11621 11623 28
9299 11621 11624 28
9300 11621 11625 28
9301 11626 11627 28
9302 11626 11628 28
9303 11626 11629 28
9304 11626 11630 28
9305 11631 11632 28
9306 11631 11633 28
9307 11631 11634 28
9308 11631 11635 28
9309 11636 11637 28
9310 11636 11638 28
9311 11636 11639 28
9312 11636 11640 28
9313 11641 11642 28
9314 11641 11643 28
9315 11641 11644 28
9316 11641 11645 28
9317 11646 11647 28
9318 11646 11648 28
9319 11646 11649 28
9320 11646 11650 28
9321 11651 11652 28
9322 11651 11653 28
9323 11651 11654 28
9324 11651 11655 28
9325 11656 11657 28
9326 11656 11658 28
9327 11656 11659 28
9328 11656 11660 28
9329 11661 11662 28
9330 11661 11663 28
9331 11661 11664 28
9332 11661 11665 28
9333 11666 11667 28
9334 11666 11668 28
9335 11666 11669 28
9336 11666 11670 28
9337 11671 11672 28
9338 11671 11673 28
9339 11671 11674 28
9340 11671 11675 28
9341 11676 11677 28
9342 11676 11678 28
9343 11676 11679 28
9344 11676 11680 28
9345 11681 11682 28
9346 11681 11683 28
9347 11681 11684 28
9348 11681 11685 28
9349 11686 11687 28
9350 11686 11688 28
9351 11686 11689 28
9352 11686 11690 28
9353 11691 11692 28
9354 11691 11693 28
9355 11691 11694 28
9356 11691 11695 28
9357 11696 11697 28
9358 11696 11698 28
9359 11696 11699 28
9360 11696 11700 28
9361 11701 11702 28
9362 11701 11703 28
9363 11701 11704 28
9364 11701 11705 28
9365 11706 11707 28
9366 11706 11708 28
9367 11706 11709 28
9368 11706 11710 28
9369 11711 11712 28
9370 11711 11713 28
9371 11711 11714 28
9372 11711 11715 28
9373 11716 11717 28
9374 11716 11718 28
9375 11716 11719 28
9376 11716 11720 28
9377 11721 11722 28
9378 11721 11723 28
9379 11721 11724 28
9380 11721 11725 28
9381 11726 11727 28
9382 11726 11728 28
9383 11726 11729 28
9384 11726 11730 28
9385 11731 11732 28
9386 11731 11733 28
9387 11731 11734 28
9388 11731 11735 28
9389 11736 11737 28
9390 11736 11738 28
9391 11736 11739 28
9392 11736 11740 28
9393 11741 11742 28
9394 11741 11743 28
9395 11741 11744 28
9396 11741 11745 28
9397 11746 11747 28
9398 11746 11748 28
9399 11746 11749 28
9400 11746 11750 28
9401 11751 11752 28
9402 11751 11753 28
9403 11751 11754 28
9404 11751 11755 28
9405 11756 11757 28
9406 11756 11758 28
9407 11756 11759 28
9408 11756 11760 28
9409 11761 11762 28
9410 11761 11763 28
9411 11761 11764 28
9412 11761 11765 28
9413 11766 11767 28
9414 11766 11768 28
9415 11766 11769 28
9416 11766 11770 28
9417 11771 11772 28
9418 11771 11773 28
9419 11771 11774 28
9420 11771 11775 28
9421 11776 11777 28
9422 11776 11778 28
9423 11776 11779 28
9424 11776 11780 28
9425 11781 11782 28
9426 11781 11783 28
9427 11781 11784 28
9428 11781 11785 28
9429 11786 11787 28
9430 11786 11788 28
9431 11786 11789 28
9432 11786 11790 28
9433 11791 11792 28
9434 11791 11793 28
9435 11791 11794 28
9436 11791 11795 28
9437 11796 11797 28
9438 11796 11798 28
9439 11796 11799 28
9440 11796 11800 28
9441 11801 11802 28
9442 11801 11803 28
9443 11801 11804 28
9444 11801 11805 28
9445 11806 11807 28
9446 11806 11808 28
9447 11806 11809 28
9448 11806 11810 28
9449 11811 11812 28
9450 11811 11813 28
9451 11811 11814 28
9452 11811 11815 28
9453 11816 11817 28
9454 11816 11818 28
9455 11816 11819 28
9456 11816 11820 28
9457 11821 11822 28
9458 11821 11823 28
9459 11821 11824 28
9460 11821 11825 28
9461 11826 11827 28
9462 11826 11828 28
9463 11826 11829 28
9464 11826 11830 28
9465 11831 11832 28
9466 11831 11833 28
9467 11831 11834 28
9468 11831 11835 28
9469 11836 11837 28
9470 11836 11838 28
9471 11836 11839 28
9472 11836 11840 28
9473 11841 11842 28
9474 11841 11843 28
9475 11841 11844 28
9476 11841 11845 28
9477 11846 11847 28
9478 11846 11848 28
9479 11846 11849 28
9480 11846 11850 28
9481 11851 11852 28
9482 11851 11853 28
9483 11851 11854 28
9484 11851 11855 28
9485 11856 11857 28
9486 11856 11858 28
9487 11856 11859 28
9488 11856 11860 28
9489 11861 11862 28
9490 11861 11863 28
9491 11861 11864 28
9492 11861 11865 28
9493 11866 11867 28
9494 11866 11868 28
9495 11866 11869 28
9496 11866 11870 28
9497 11871 11872 28
9498 11871 11873 28
9499 11871 11874 28
9500 11871 11875 28
9501 11876 11877 28
9502 11876 11878 28
9503 11876 11879 28
9504 11876 11880 28
9505 11881 11882 28
9506 11881 11883 28
9507 11881 11884 28
9508 11881 11885 28
9509 11886 11887 28
9510 11886 11888 28
9511 11886 11889 28
9512 11886 11890 28
9513 11891 11892 28
9514 11891 11893 28
9515 11891 11894 28
9516 11891 11895 28
9517 11896 11897 28
9518 11896 11898 28
9519 11896 11899 28
9520 11896 11900 28
9521 11901 11902 28
9522 11901 11903 28
9523 11901 11904 28
9524 11901 11905 28
9525 11906 11907 28
9526 11906 11908 28
9527 11906 11909 28
9528 11906 11910 28
9529 11911 11912 28
9530 11911 11913 28
9531 11911 11914 28
9532 11911 11915 28
9533 11916 11917 28
9534 11916 11918 28
9535 11916 11919 28
9536 11916 11920 28
9537 11921 11922 28
9538 11921 11923 28
9539 11921 11924 28
9540 11921 11925 28
9541 11926 11927 28
9542 11926 11928 28
9543 11926 11929 28
9544 11926 11930 28
9545 11931 11932 28
9546 11931 11933 28
9547 11931 11934 28
9548 11931 11935 28
9549 11936 11937 28
9550 11936 11938 28
9551 11936 11939 28
9552 11936 11940 28
9553 11941 11942 28
9554 11941 11943 28
9555 11941 11944 28
9556 11941 11945 28
9557 11946 11947 28
9558 11946 11948 28
9559 11946 11949 28
9560 11946 11950 28
9561 11951 11952 28
9562 11951 11953 28
9563 11951 11954 28
9564 11951 11955 28
9565 11956 11957 28
9566 11956 11958 28
9567 11956 11959 28
9568 11956 11960 28
9569 11961 11962 28
9570 11961 11963 28
9571 11961 11964 28
9572 11961 11965 28
9573 11966 11967 28
9574 11966 11968 28
9575 11966 11969 28
9576 11966 11970 28
9577 11971 11972 28
9578 11971 11973 28
9579 11971 11974 28
9580 11971 11975 28
9581 11976 11977 28
9582 11976 11978 28
9583 11976 11979 28
9584 11976 11980 28
9585 11981 11982 28
9586 11981 11983 28
9587 11981 11984 28
9588 11981 11985 28
9589 11986 11987 28
9590 11986 11988 28
9591 11986 11989 28
9592 11986 11990 28
9593 11991 11992 28
9594 11991 11993 28
9595 11991 11994 28
9596 11991 11995 28
9597 11996 11997 28
9598 11996 11998 28
9599 11996 11999 28
9600 11996 12000 28
9601 12001 12002 28
9602 12001 12003 28
9603 12001 12004 28
9604 12001 12005 28
9605 12006 12007 28
9606 12006 12008 28
9607 12006 12009 28
9608 12006 12010 28
9609 12011 12012 28
9610 12011 12013 28
9611 12011 12014 28
9612 12011 12015 28
9613 12016 12017 28
9614 12016 12018 28
9615 12016 12019 28
9616 12016 12020 28
9617 12021 12022 28
9618 12021 12023 28
9619 12021 12024 28
9620 12021 12025 28
9621 12026 12027 28
9622 12026 12028 28
9623 12026 12029 28
9624 12026 12030 28
9625 12031 12032 28
9626 12031 12033 28
9627 12031 12034 28
9628 12031 12035 28
9629 12036 12037 28
9630 12036 12038 28
9631 12036 12039 28
9632 12036 12040 28
9633 12041 12042 28
9634 12041 12043 28
9635 12041 12044 28
9636 12041 12045 28
9637 12046 12047 28
9638 12046 12048 28
9639 12046 12049 28
9640 12046 12050 28
9641 12051 12052 28
9642 12051 12053 28
9643 12051 12054 28
9644 12051 12055 28
9645 12056 12057 28
9646 12056 12058 28
9647 12056 12059 28
9648 12056 12060 28
9649 12061 12062 28
9650 12061 12063 28
9651 12061 12064 28
9652 12061 12065 28
9653 12066 12067 28
9654 12066 12068 28
9655 12066 12069 28
9656 12066 12070 28
9657 12071 12072 28
9658 12071 12073 28
9659 12071 12074 28
9660 12071 12075 28
9661 12076 12077 28
9662 12076 12078 28
9663 12076 12079 28
9664 12076 12080 28
9665 12081 12082 28
9666 12081 12083 28
9667 12081 12084 28
9668 12081 12085 28
9669 12086 12087 28
9670 12086 12088 28
9671 12086 12089 28
9672 12086 12090 28
9673 12091 12092 28
9674 12091 12093 28
9675 12091 12094 28
9676 12091 12095 28
9677 12096 12097 28
9678 12096 12098 28
9679 12096 12099 28
9680 12096 12100 28
9681 12101 12102 28
9682 12101 12103 28
9683 12101 12104 28
9684 12101 12105 28
9685 12106 12107 28
9686 12106 12108 28
9687 12106 12109 28
9688 12106 12110 28
9689 12111 12112 28
9690 12111 12113 28
9691 12111 12114 28
9692 12111 12115 28
9693 12116 12117 28
9694 12116 12118 28
9695 12116 12119 28
9696 12116 12120 28
9697 12121 12122 28
9698 12121 12123 28
9699 12121 12124 28
9700 12121 12125 28
9701 12126 12127 28
9702 12126 12128 28
9703 12126 12129 28
9704 12126 12130 28
9705 12131 12132 28
9706 12131 12133 28
9707 12131 12134 28
9708 12131 12135 28
9709 12136 12137 28
9710 12136 12138 28
9711 12136 12139 28
9712 12136 12140 28
9713 12141 12142 28
9714 12141 12143 28
9715 12141 12144 28
9716 12141 12145 28
9717 12146 12147 28
9718 12146 12148 28
9719 12146 12149 28
9720 12146 12150 28
9721 12151 12152 28
9722 12151 12153 28
9723 12151 12154 28
9724 12151 12155 28
9725 12156 12157 28
9726 12156 12158 28
9727 12156 12159 28
9728 12156 12160 28
9729 12161 12162 28
9730 12161 12163 28
9731 12161 12164 28
9732 12161 12165 28
9733 12166 12167 28
9734 12166 12168 28
9735 12166 12169 28
9736 12166 12170 28
9737 12171 12172 28
9738 12171 12173 28
9739 12171 12174 28
9740 12171 12175 28
9741 12176 12177 28
9742 12176 12178 28
9743 12176 12179 28
9744 12176 12180 28
9745 12181 12182 28
9746 12181 12183 28
9747 12181 12184 28
9748 12181 12185 28
9749 12186 12187 28
9750 12186 12188 28
9751 12186 12189 28
9752 12186 12190 28
9753 12191 12192 28
9754 12191 12193 28
9755 12191 12194 28
9756 12191 12195 28
9757 12196 12197 28
9758 12196 12198 28
9759 12196 12199 28
9760 12196 12200 28
9761 12201 12202 28
9762 12201 12203 28
9763 12201 12204 28
9764 12201 12205 28
9765 12206 12207 28
9766 12206 12208 28
9767 12206 12209 28
9768 12206 12210 28
9769 12211 12212 28
9770 12211 12213 28
9771 12211 12214 28
9772 12211 12215 28
9773 12216 12217 28
9774 12216 12218 28
9775 12216 12219 28
9776 12216 12220 28
9777 12221 12222 28
9778 12221 12223 28
9779 12221 12224 28
9780 12221 12225 28
9781 12226 12227 28
9782 12226 12228 28
9783 12226 12229 28
9784 12226 12230 28
9785 12231 12232 28
9786 12231 12233 28
9787 12231 12234 28
9788 12231 12235 28
9789 12236 12237 28
9790 12236 12238 28
9791 12236 12239 28
9792 12236 12240 28
9793 12241 12242 28
9794 12241 12243 28
9795 12241 12244 28
9796 12241 12245 28
9797 12246 12247 28
9798 12246 12248 28
9799 12246 12249 28
9800 12246 12250 28
9801 12251 12252 28
9802 12251 12253 28
9803 12251 12254 28
9804 12251 12255 28
9805 12256 12257 28
9806 12256 12258 28
9807 12256 12259 28
9808 12256 12260 28
9809 12261 12262 28
9810 12261 12263 28
9811 12261 12264 28
9812 12261 12265 28
9813 12266 12267 28
9814 12266 12268 28
9815 12266 12269 28
9816 12266 12270 28
9817 12271 12272 28
9818 12271 12273 28
9819 12271 12274 28
9820 12271 12275 28
9821 12276 12277 28
9822 12276 12278 28
9823 12276 12279 28
9824 12276 12280 28
9825 12281 12282 28
9826 12281 12283 28
9827 12281 12284 28
9828 12281 12285 28
9829 12286 12287 28
9830 12286 12288 28
9831 12286 12289 28
9832 12286 12290 28
9833 12291 12292 28
9834 12291 12293 28
9835 12291 12294 28
9836 12291 12295 28
9837 12296 12297 28
9838 12296 12298 28
9839 12296 12299 28
9840 12296 12300 28
9841 12301 12302 28
9842 12301 12303 28
9843 12301 12304 28
9844 12301 12305 28
9845 12306 12307 28
9846 12306 12308 28
9847 12306 12309 28
9848 12306 12310 28
9849 12311 12312 28
9850 12311 12313 28
9851 12311 12314 28
9852 12311 12315 28
9853 12316 12317 28
9854 12316 12318 28
9855 12316 12319 28
9856 12316 12320 28
9857 12321 12322 28
9858 12321 12323 28
9859 12321 12324 28
9860 12321 12325 28
9861 12326 12327 28
9862 12326 12328 28
9863 12326 12329 28
9864 12326 12330 28
9865 12331 12332 28
9866 12331 12333 28
9867 12331 12334 28
9868 12331 12335 28
9869 12336 12337 28
9870 12336 12338 28
9871 12336 12339 28
9872 12336 12340 28
9873 12341 12342 28
9874 12341 12343 28
9875 12341 12344 28
9876 12341 12345 28
9877 12346 12347 28
9878 12346 12348 28
9879 12346 12349 28
9880 12346 12350 28
9881 12351 12352 28
9882 12351 12353 28
9883 12351 12354 28
9884 12351 12355 28
9885 12356 12357 28
9886 12356 12358 28
9887 12356 12359 28
9888 12356 12360 28
9889 12361 12362 28
9890 12361 12363 28
9891 12361 12364 28
9892 12361 12365 28
9893 12366 12367 28
9894 12366 12368 28
9895 12366 12369 28
9896 12366 12370 28
9897 12371 12372 28
9898 12371 12373 28
9899 12371 12374 28
9900 12371 12375 28
9901 12376 12377 28
9902 12376 12378 28
9903 12376 12379 28
9904 12376 12380 28
9905 12381 12382 28
9906 12381 12383 28
9907 12381 12384 28
9908 12381 12385 28
9909 12386 12387 28
9910 12386 12388 28
9911 12386 12389 28
9912 12386 12390 28
9913 12391 12392 28
9914 12391 12393 28
9915 12391 12394 28
9916 12391 12395 28
9917 12396 12397 28
9918 12396 12398 28
9919 12396 12399 28
9920 12396 12400 28
9921 12401 12402 28
9922 12401 12403 28
9923 12401 12404 28
9924 12401 12405 28
9925 12406 12407 28
9926 12406 12408 28
9927 12406 12409 28
9928 12406 12410 28
9929 12411 12412 28
9930 12411 12413 28
9931 12411 12414 28
9932 12411 12415 28
9933 12416 12417 28
9934 12416 12418 28
9935 12416 12419 28
9936 12416 12420 28
9937 12421 12422 28
9938 12421 12423 28
9939 12421 12424 28
9940 12421 12425 28
9941 12426 12427 28
9942 12426 12428 28
9943 12426 12429 28
9944 12426 12430 28
9945 12431 12432 28
9946 12431 12433 28
9947 12431 12434 28
9948 12431 12435 28
9949 12436 12437 28
9950 12436 12438 28
9951 12436 12439 28
9952 12436 12440 28
9953 12441 12442 28
9954 12441 12443 28
9955 12441 12444 28
9956 12441 12445 28
9957 12446 12447 28
9958 12446 12448 28
9959 12446 12449 28
9960 12446 12450 28
9961 12451 12452 28
9962 12451 12453 28
9963 12451 12454 28
9964 12451 12455 28
9965 12456 12457 28
9966 12456 12458 28
9967 12456 12459 28
9968 12456 12460 28
9969 12461 12462 28
9970 12461 12463 28
9971 12461 12464 28
9972 12461 12465 28
9973 12466 12467 28
9974 12466 12468 28
9975 12466 12469 28
9976 12466 12470 28
9977 12471 12472 28
9978 12471 12473 28
9979 12471 12474 28
9980 12471 12475 28
9981 12476 12477 28
9982 12476 12478 28
9983 12476 12479 28
9984 12476 12480 28
9985 12481 12482 28
9986 12481 12483 28
9987 12481 12484 28
9988 12481 12485 28
9989 12486 12487 28
9990 12486 12488 28
9991 12486 12489 28
9992 12486 12490 28
9993 12491 12492 28
9994 12491 12493 28
9995 12491 12494 28
9996 12491 12495 28
9997 12496 12497 28
9998 12496 12498 28
9999 12496 12499 28
10000 12496 12500 28
10001 12501 12502 28
10002 12501 12503 28
10003 12501 12504 28
10004 12501 12505 28
10005 12506 12507 28
10006 12506 12508 28
10007 12506 12509 28
10008 12506 12510 28
10009 12511 12512 28
10010 12511 12513 28
10011 12511 12514 28
10012 12511 12515 28
10013 12516 12517 28
10014 12516 12518 28
10015 12516 12519 28
10016 12516 12520 28
10017 12521 12522 28
10018 12521 12523 28
10019 12521 12524 28
10020 12521 12525 28
10021 12526 12527 28
10022 12526 12528 28
10023 12526 12529 28
10024 12526 12530 28
10025 12531 12532 28
10026 12531 12533 28
10027 12531 12534 28
10028 12531 12535 28
10029 12536 12537 28
10030 12536 12538 28
10031 12536 12539 28
10032 12536 12540 28
10033 12541 12542 28
10034 12541 12543 28
10035 12541 12544 28
10036 12541 12545 28
10037 12546 12547 28
10038 12546 12548 28
10039 12546 12549 28
10040 12546 12550 28
10041 12551 12552 28
10042 12551 12553 28
10043 12551 12554 28
10044 12551 12555 28
10045 12556 12557 28
10046 12556 12558 28
10047 12556 12559 28
10048 12556 12560 28
10049 12561 12562 28
10050 12561 12563 28
10051 12561 12564 28
10052 12561 12565 28
10053 12566 12567 28
10054 12566 12568 28
10055 12566 12569 28
10056 12566 12570 28
10057 12571 12572 28
10058 12571 12573 28
10059 12571 12574 28
10060 12571 12575 28
10061 12576 12577 28
10062 12576 12578 28
10063 12576 12579 28
10064 12576 12580 28
10065 12581 12582 28
10066 12581 12583 28
10067 12581 12584 28
10068 12581 12585 28
10069 12586 12587 28
10070 12586 12588 28
10071 12586 12589 28
10072 12586 12590 28
10073 12591 12592 28
10074 12591 12593 28
10075 12591 12594 28
10076 12591 12595 28
10077 12596 12597 28
10078 12596 12598 28
10079 12596 12599 28
10080 12596 12600 28
10081 12601 12602 28
10082 12601 12603 28
10083 12601 12604 28
10084 12601 12605 28
10085 12606 12607 28
10086 12606 12608 28
10087 12606 12609 28
10088 12606 12610 28
10089 12611 12612 28
10090 12611 12613 28
10091 12611 12614 28
10092 12611 12615 28
10093 12616 12617 28
10094 12616 12618 28
10095 12616 12619 28
10096 12616 12620 28
10097 12621 12622 28
10098 12621 12623 28
10099 12621 12624 28
10100 12621 12625 28
10101 12626 12627 28
10102 12626 12628 28
10103 12626 12629 28
10104 12626 12630 28
10105 12631 12632 28
10106 12631 12633 28
10107 12631 12634 28
10108 12631 12635 28
10109 12636 12637 28
10110 12636 12638 28
10111 12636 12639 28
10112 12636 12640 28
10113 12641 12642 28
10114 12641 12643 28
10115 12641 12644 28
10116 12641 12645 28
10117 12646 12647 28
10118 12646 12648 28
10119 12646 12649 28
10120 12646 12650 28
10121 12651 12652 28
10122 12651 12653 28
10123 12651 12654 28
10124 12651 12655 28
10125 12656 12657 28
10126 12656 12658 28
10127 12656 12659 28
10128 12656 12660 28
10129 12661 12662 28
10130 12661 12663 28
10131 12661 12664 28
10132 12661 12665 28
10133 12666 12667 28
10134 12666 12668 28
10135 12666 12669 28
10136 12666 12670 28
10137 12671 12672 28
10138 12671 12673 28
10139 12671 12674 28
10140 12671 12675 28
10141 12676 12677 28
10142 12676 12678 28
10143 12676 12679 28
10144 12676 12680 28
10145 12681 12682 28
10146 12681 12683 28
10147 12681 12684 28
10148 12681 12685 28
10149 12686 12687 28
10150 12686 12688 28
10151 12686 12689 28
10152 12686 12690 28
10153 12691 12692 28
10154 12691 12693 28
10155 12691 12694 28
10156 12691 12695 28
10157 12696 12697 28
10158 12696 12698 28
10159 12696 12699 28
10160 12696 12700 28
10161 12701 12702 28
10162 12701 12703 28
10163 12701 12704 28
10164 12701 12705 28
10165 12706 12707 28
10166 12706 12708 28
10167 12706 12709 28
10168 12706 12710 28
10169 12711 12712 28
10170 12711 12713 28
10171 12711 12714 28
10172 12711 12715 28
10173 12716 12717 28
10174 12716 12718 28
10175 12716 12719 28
10176 12716 12720 28
10177 12721 12722 28
10178 12721 12723 28
10179 12721 12724 28
10180 12721 12725 28
10181 12726 12727 28
10182 12726 12728 28
10183 12726 12729 28
10184 12726 12730 28
10185 12731 12732 28
10186 12731 12733 28
10187 12731 12734 28
10188 12731 12735 28
10189 12736 12737 28
10190 12736 12738 28
10191 12736 12739 28
10192 12736 12740 28
10193 12741 12742 28
10194 12741 12743 28
10195 12741 12744 28
10196 12741 12745 28
10197 12746 12747 28
10198 12746 12748 28
10199 12746 12749 28
10200 12746 12750 28
10201 12751 12752 28
10202 12751 12753 28
10203 12751 12754 28
10204 12751 12755 28
10205 12756 12757 28
10206 12756 12758 28
10207 12756 12759 28
10208 12756 12760 28
10209 12761 12762 28
10210 12761 12763 28
10211 12761 12764 28
10212 12761 12765 28
10213 12766 12767 28
10214 12766 12768 28
10215 12766 12769 28
10216 12766 12770 28
10217 12771 12772 28
10218 12771 12773 28
10219 12771 12774 28
10220 12771 12775 28
10221 12776 12777 28
10222 12776 12778 28
10223 12776 12779 28
10224 12776 12780 28
10225 12781 12782 28
10226 12781 12783 28
10227 12781 12784 28
10228 12781 12785 28
10229 12786 12787 28
10230 12786 12788 28
10231 12786 12789 28
10232 12786 12790 28
10233 12791 12792 28
10234 12791 12793 28
10235 12791 12794 28
10236 12791 12795 28
10237 12796 12797 28
10238 12796 12798 28
10239 12796 12799 28
10240 12796 12800 28
10241 12801 12802 28
10242 12801 12803 28
10243 12801 12804 28
10244 12801 12805 28
10245 12806 12807 28
10246 12806 12808 28
10247 12806 12809 28
10248 12806 12810 28
10249 12811 12812 28
10250 12811 12813 28
10251 12811 12814 28
10252 12811 12815 28
10253 12816 12817 28
10254 12816 12818 28
10255 12816 12819 28
10256 12816 12820 28
10257 12821 12822 28
10258 12821 12823 28
10259 12821 12824 28
10260 12821 12825 28
10261 12826 12827 28
10262 12826 12828 28
10263 12826 12829 28
10264 12826 12830 28
10265 12831 12832 28
10266 12831 12833 28
10267 12831 12834 28
10268 12831 12835 28
10269 12836 12837 28
10270 12836 12838 28
10271 12836 12839 28
10272 12836 12840 28
10273 12841 12842 28
10274 12841 12843 28
10275 12841 12844 28
10276 12841 12845 28
10277 12846 12847 28
10278 12846 12848 28
10279 12846 12849 28
10280 12846 12850 28
10281 12851 12852 28
10282 12851 12853 28
10283 12851 12854 28
10284 12851 12855 28
10285 12856 12857 28
10286 12856 12858 28
10287 12856 12859 28
10288 12856 12860 28
10289 12861 12862 28
10290 12861 12863 28
10291 12861 12864 28
10292 12861 12865 28
10293 12866 12867 28
10294 12866 12868 28
10295 12866 12869 28
10296 12866 12870 28
10297 12871 12872 28
10298 12871 12873 28
10299 12871 12874 28
10300 12871 12875 28
10301 12876 12877 28
10302 12876 12878 28
10303 12876 12879 28
10304 12876 12880 28
10305 12881 12882 28
10306 12881 12883 28
10307 12881 12884 28
10308 12881 12885 28
10309 12886 12887 28
10310 12886 12888 28
10311 12886 12889 28
10312 12886 12890 28
10313 12891 12892 28
10314 12891 12893 28
10315 12891 12894 28
10316 12891 12895 28
10317 12896 12897 28
10318 12896 12898 28
10319 12896 12899 28
10320 12896 12900 28
10321 12901 12902 28
10322 12901 12903 28
10323 12901 12904 28
10324 12901 12905 28
10325 12906 12907 28
10326 12906 12908 28
10327 12906 12909 28
10328 12906 12910 28
10329 12911 12912 28
10330 12911 12913 28
10331 12911 12914 28
10332 12911 12915 28
10333 12916 12917 28
10334 12916 12918 28
10335 12916 12919 28
10336 12916 12920 28
10337 12921 12922 28
10338 12921 12923 28
10339 12921 12924 28
10340 12921 12925 28
10341 12926 12927 28
10342 12926 12928 28
10343 12926 12929 28
10344 12926 12930 28
10345 12931 12932 28
10346 12931 12933 28
10347 12931 12934 28
10348 12931 12935 28
10349 12936 12937 28
10350 12936 12938 28
10351 12936 12939 28
10352 12936 12940 28
10353 12941 12942 28
10354 12941 12943 28
10355 12941 12944 28
10356 12941 12945 28
10357 12946 12947 28
10358 12946 12948 28
10359 12946 12949 28
10360 12946 12950 28
10361 12951 12952 28
10362 12951 12953 28
10363 12951 12954 28
10364 12951 12955 28
10365 12956 12957 28
10366 12956 12958 28
10367 12956 12959 28
10368 12956 12960 28
10369 12961 12962 28
10370 12961 12963 28
10371 12961 12964 28
10372 12961 12965 28
10373 12966 12967 28
10374 12966 12968 28
10375 12966 12969 28
10376 12966 12970 28
10377 12971 12972 28
10378 12971 12973 28
10379 12971 12974 28
10380 12971 12975 28
10381 12976 12977 28
10382 12976 12978 28
10383 12976 12979 28
10384 12976 12980 28
10385 12981 12982 28
10386 12981 12983 28
10387 12981 12984 28
10388 12981 12985 28
10389 12986 12987 28
10390 12986 12988 28
10391 12986 12989 28
10392 12986 12990 28
10393 12991 12992 28
10394 12991 12993 28
10395 12991 12994 28
10396 12991 12995 28
10397 12996 12997 28
10398 12996 12998 28
10399 12996 12999 28
10400 12996 13000 28
10401 13001 13002 28
10402 13001 13003 28
10403 13001 13004 28
10404 13001 13005 28
10405 13006 13007 28
10406 13006 13008 28
10407 13006 13009 28
10408 13006 13010 28
10409 13011 13012 28
10410 13011 13013 28
10411 13011 13014 28
10412 13011 13015 28
10413 13016 13017 28
10414 13016 13018 28
10415 13016 13019 28
10416 13016 13020 28
10417 13021 13022 28
10418 13021 13023 28
10419 13021 13024 28
10420 13021 13025 28
10421 13026 13027 28
10422 13026 13028 28
10423 13026 13029 28
10424 13026 13030 28
10425 13031 13032 28
10426 13031 13033 28
10427 13031 13034 28
10428 13031 13035 28
10429 13036 13037 28
10430 13036 13038 28
10431 13036 13039 28
10432 13036 13040 28
10433 13041 13042 28
10434 13041 13043 28
10435 13041 13044 28
10436 13041 13045 28
10437 13046 13047 28
10438 13046 13048 28
10439 13046 13049 28
10440 13046 13050 28
10441 13051 13052 28
10442 13051 13053 28
10443 13051 13054 28
10444 13051 13055 28
10445 13056 13057 28
10446 13056 13058 28
10447 13056 13059 28
10448 13056 13060 28
10449 13061 13062 28
10450 13061 13063 28
10451 13061 13064 28
10452 13061 13065 28
10453 13066 13067 28
10454 13066 13068 28
10455 13066 13069 28
10456 13066 13070 28
10457 13071 13072 28
10458 13071 13073 28
10459 13071 13074 28
10460 13071 13075 28
10461 13076 13077 28
10462 13076 13078 28
10463 13076 13079 28
10464 13076 13080 28
10465 13081 13082 28
10466 13081 13083 28
10467 13081 13084 28
10468 13081 13085 28
10469 13086 13087 28
10470 13086 13088 28
10471 13086 13089 28
10472 13086 13090 28
10473 13091 13092 28
10474 13091 13093 28
10475 13091 13094 28
10476 13091 13095 28
10477 13096 13097 28
10478 13096 13098 28
10479 13096 13099 28
10480 13096 13100 28
10481 13101 13102 28
10482 13101 13103 28
10483 13101 13104 28
10484 13101 13105 28
10485 13106 13107 28
10486 13106 13108 28
10487 13106 13109 28
10488 13106 13110 28
10489 13111 13112 28
10490 13111 13113 28
10491 13111 13114 28
10492 13111 13115 28
10493 13116 13117 28
10494 13116 13118 28
10495 13116 13119 28
10496 13116 13120 28
10497 13121 13122 28
10498 13121 13123 28
10499 13121 13124 28
10500 13121 13125 28
10501 13126 13127 28
10502 13126 13128 28
10503 13126 13129 28
10504 13126 13130 28
10505 13131 13132 28
10506 13131 13133 28
10507 13131 13134 28
10508 13131 13135 28
10509 13136 13137 28
10510 13136 13138 28
10511 13136 13139 28
10512 13136 13140 28
10513 13141 13142 28
10514 13141 13143 28
10515 13141 13144 28
10516 13141 13145 28
10517 13146 13147 28
10518 13146 13148 28
10519 13146 13149 28
10520 13146 13150 28
10521 13151 13152 28
10522 13151 13153 28
10523 13151 13154 28
10524 13151 13155 28
10525 13156 13157 28
10526 13156 13158 28
10527 13156 13159 28
10528 13156 13160 28
10529 13161 13162 28
10530 13161 13163 28
10531 13161 13164 28
10532 13161 13165 28
10533 13166 13167 28
10534 13166 13168 28
10535 13166 13169 28
10536 13166 13170 28
10537 13171 13172 28
10538 13171 13173 28
10539 13171 13174 28
10540 13171 13175 28
10541 13176 13177 28
10542 13176 13178 28
10543 13176 13179 28
10544 13176 13180 28
10545 13181 13182 28
10546 13181 13183 28
10547 13181 13184 28
10548 13181 13185 28
10549 13186 13187 28
10550 13186 13188 28
10551 13186 13189 28
10552 13186 13190 28
10553 13191 13192 28
10554 13191 13193 28
10555 13191 13194 28
10556 13191 13195 28
10557 13196 13197 28
10558 13196 13198 28
10559 13196 13199 28
10560 13196 13200 28
10561 13201 13202 28
10562 13201 13203 28
10563 13201 13204 28
10564 13201 13205 28
10565 13206 13207 28
10566 13206 13208 28
10567 13206 13209 28
10568 13206 13210 28
10569 13211 13212 28
10570 13211 13213 28
10571 13211 13214 28
10572 13211 13215 28
10573 13216 13217 28
10574 13216 13218 28
10575 13216 13219 28
10576 13216 13220 28
10577 13221 13222 28
10578 13221 13223 28
10579 13221 13224 28
10580 13221 13225 28
10581 13226 13227 28
10582 13226 13228 28
10583 13226 13229 28
10584 13226 13230 28
10585 13231 13232 28
10586 13231 13233 28
10587 13231 13234 28
10588 13231 13235 28
10589 13236 13237 28
10590 13236 13238 28
10591 13236 13239 28
10592 13236 13240 28
10593 13241 13242 28
10594 13241 13243 28
10595 13241 13244 28
10596 13241 13245 28
10597 13246 13247 28
10598 13246 13248 28
10599 13246 13249 28
10600 13246 13250 28
10601 13251 13252 28
10602 13251 13253 28
10603 13251 13254 28
10604 13251 13255 28
10605 13256 13257 28
10606 13256 13258 28
10607 13256 13259 28
10608 13256 13260 28
10609 13261 13262 28
10610 13261 13263 28
10611 13261 13264 28
10612 13261 13265 28
10613 13266 13267 28
10614 13266 13268 28
10615 13266 13269 28
10616 13266 13270 28
10617 13271 13272 28
10618 13271 13273 28
10619 13271 13274 28
10620 13271 13275 28
10621 13276 13277 28
10622 13276 13278 28
10623 13276 13279 28
10624 13276 13280 28
10625 13281 13282 28
10626 13281 13283 28
10627 13281 13284 28
10628 13281 13285 28
10629 13286 13287 28
10630 13286 13288 28
10631 13286 13289 28
10632 13286 13290 28
10633 13291 13292 28
10634 13291 13293 28
10635 13291 13294 28
10636 13291 13295 28
10637 13296 13297 28
10638 13296 13298 28
10639 13296 13299 28
10640 13296 13300 28
10641 13301 13302 28
10642 13301 13303 28
10643 13301 13304 28
10644 13301 13305 28
10645 13306 13307 28
10646 13306 13308 28
10647 13306 13309 28
10648 13306 13310 28
10649 13311 13312 28
10650 13311 13313 28
10651 13311 13314 28
10652 13311 13315 28
10653 13316 13317 28
10654 13316 13318 28
10655 13316 13319 28
10656 13316 13320 28
10657 13321 13322 28
10658 13321 13323 28
10659 13321 13324 28
10660 13321 13325 28
10661 13326 13327 28
10662 13326 13328 28
10663 13326 13329 28
10664 13326 13330 28
10665 13331 13332 28
10666 13331 13333 28
10667 13331 13334 28
10668 13331 13335 28
10669 13336 13337 28
10670 13336 13338 28
10671 13336 13339 28
10672 13336 13340 28
10673 13341 13342 28
10674 13341 13343 28
10675 13341 13344 28
10676 13341 13345 28
10677 13346 13347 28
10678 13346 13348 28
10679 13346 13349 28
10680 13346 13350 28
10681 13351 13352 28
10682 13351 13353 28
10683 13351 13354 28
10684 13351 13355 28
10685 13356 13357 28
10686 13356 13358 28
10687 13356 13359 28
10688 13356 13360 28
10689 13361 13362 28
10690 13361 13363 28
10691 13361 13364 28
10692 13361 13365 28
10693 13366 13367 28
10694 13366 13368 28
10695 13366 13369 28
10696 13366 13370 28
10697 13371 13372 28
10698 13371 13373 28
10699 13371 13374 28
10700 13371 13375 28
10701 13376 13377 28
10702 13376 13378 28
10703 13376 13379 28
10704 13376 13380 28
10705 13381 13382 28
10706 13381 13383 28
10707 13381 13384 28
10708 13381 13385 28
10709 13386 13387 28
10710 13386 13388 28
10711 13386 13389 28
10712 13386 13390 28
10713 13391 13392 28
10714 13391 13393 28
10715 13391 13394 28
10716 13391 13395 28
10717 13396 13397 28
10718 13396 13398 28
10719 13396 13399 28
10720 13396 13400 28
10721 13401 13402 28
10722 13401 13403 28
10723 13401 13404 28
10724 13401 13405 28
10725 13406 13407 28
10726 13406 13408 28
10727 13406 13409 28
10728 13406 13410 28
10729 13411 13412 28
10730 13411 13413 28
10731 13411 13414 28
10732 13411 13415 28
10733 13416 13417 28
10734 13416 13418 28
10735 13416 13419 28
10736 13416 13420 28
10737 13421 13422 28
10738 13421 13423 28
10739 13421 13424 28
10740 13421 13425 28
10741 13426 13427 28
10742 13426 13428 28
10743 13426 13429 28
10744 13426 13430 28
10745 13431 13432 28
10746 13431 13433 28
10747 13431 13434 28
10748 13431 13435 28
10749 13436 13437 28
10750 13436 13438 28
10751 13436 13439 28
10752 13436 13440 28
10753 13441 13442 28
10754 13441 13443 28
10755 13441 13444 28
10756 13441 13445 28
10757 13446 13447 28
10758 13446 13448 28
10759 13446 13449 28
10760 13446 13450 28
10761 13451 13452 28
10762 13451 13453 28
10763 13451 13454 28
10764 13451 13455 28
10765 13456 13457 28
10766 13456 13458 28
10767 13456 13459 28
10768 13456 13460 28
10769 13461 13462 28
10770 13461 13463 28
10771 13461 13464 28
10772 13461 13465 28
10773 13466 13467 28
10774 13466 13468 28
10775 13466 13469 28
10776 13466 13470 28
10777 13471 13472 28
10778 13471 13473 28
10779 13471 13474 28
10780 13471 13475 28
10781 13476 13477 28
10782 13476 13478 28
10783 13476 13479 28
10784 13476 13480 28
10785 13481 13482 28
10786 13481 13483 28
10787 13481 13484 28
10788 13481 13485 28
10789 13486 13487 28
10790 13486 13488 28
10791 13486 13489 28
10792 13486 13490 28
10793 13491 13492 28
10794 13491 13493 28
10795 13491 13494 28
10796 13491 13495 28
10797 13496 13497 28
10798 13496 13498 28
10799 13496 13499 28
10800 13496 13500 28
10801 13501 13502 28
10802 13501 13503 28
10803 13501 13504 28
10804 13501 13505 28
10805 13506 13507 28
10806 13506 13508 28
10807 13506 13509 28
10808 13506 13510 28
10809 13511 13512 28
10810 13511 13513 28
10811 13511 13514 28
10812 13511 13515 28
10813 13516 13517 28
10814 13516 13518 28
10815 13516 13519 28
10816 13516 13520 28
10817 13521 13522 28
10818 13521 13523 28
10819 13521 13524 28
10820 13521 13525 28
10821 13526 13527 28
10822 13526 13528 28
10823 13526 13529 28
10824 13526 13530 28
10825 13531 13532 28
10826 13531 13533 28
10827 13531 13534 28
10828 13531 13535 28
10829 13536 13537 28
10830 13536 13538 28
10831 13536 13539 28
10832 13536 13540 28
10833 13541 13542 28
10834 13541 13543 28
10835 13541 13544 28
10836 13541 13545 28
10837 13546 13547 28
10838 13546 13548 28
10839 13546 13549 28
10840 13546 13550 28
10841 13551 13552 28
10842 13551 13553 28
10843 13551 13554 28
10844 13551 13555 28
10845 13556 13557 28
10846 13556 13558 28
10847 13556 13559 28
10848 13556 13560 28
10849 13561 13562 28
10850 13561 13563 28
10851 13561 13564 28
10852 13561 13565 28
10853 13566 13567 28
10854 13566 13568 28
10855 13566 13569 28
10856 13566 13570 28
10857 13571 13572 28
10858 13571 13573 28
10859 13571 13574 28
10860 13571 13575 28
10861 13576 13577 28
10862 13576 13578 28
10863 13576 13579 28
10864 13576 13580 28
10865 13581 13582 28
10866 13581 13583 28
10867 13581 13584 28
10868 13581 13585 28
10869 13586 13587 28
10870 13586 13588 28
10871 13586 13589 28
10872 13586 13590 28
10873 13591 13592 28
10874 13591 13593 28
10875 13591 13594 28
10876 13591 13595 28
10877 13596 13597 28
10878 13596 13598 28
10879 13596 13599 28
10880 13596 13600 28
10881 13601 13602 28
10882 13601 13603 28
10883 13601 13604 28
10884 13601 13605 28
10885 13606 13607 28
10886 13606 13608 28
10887 13606 13609 28
10888 13606 13610 28
10889 13611 13612 28
10890 13611 13613 28
10891 13611 13614 28
10892 13611 13615 28
10893 13616 13617 28
10894 13616 13618 28
10895 13616 13619 28
10896 13616 13620 28
10897 13621 13622 28
10898 13621 13623 28
10899 13621 13624 28
10900 13621 13625 28
10901 13626 13627 28
10902 13626 13628 28
10903 13626 13629 28
10904 13626 13630 28
10905 13631 13632 28
10906 13631 13633 28
10907 13631 13634 28
10908 13631 13635 28
10909 13636 13637 28
10910 13636 13638 28
10911 13636 13639 28
10912 13636 13640 28
10913 13641 13642 28
10914 13641 13643 28
10915 13641 13644 28
10916 13641 13645 28
10917 13646 13647 28
10918 13646 13648 28
10919 13646 13649 28
10920 13646 13650 28
10921 13651 13652 28
10922 13651 13653 28
10923 13651 13654 28
10924 13651 13655 28
10925 13656 13657 28
10926 13656 13658 28
10927 13656 13659 28
10928 13656 13660 28
10929 13661 13662 28
10930 13661 13663 28
10931 13661 13664 28
10932 13661 13665 28
10933 13666 13667 28
10934 13666 13668 28
10935 13666 13669 28
10936 13666 13670 28
10937 13671 13672 28
10938 13671 13673 28
10939 13671 13674 28
10940 13671 13675 28
10941 13676 13677 28
10942 13676 13678 28
10943 13676 13679 28
10944 13676 13680 28
10945 13681 13682 28
10946 13681 13683 28
10947 13681 13684 28
10948 13681 13685 28
10949 13686 13687 28
10950 13686 13688 28
10951 13686 13689 28
10952 13686 13690 28
10953 13691 13692 28
10954 13691 13693 28
10955 13691 13694 28
10956 13691 13695 28
10957 13696 13697 28
10958 13696 13698 28
10959 13696 13699 28
10960 13696 13700 28
10961 13701 13702 28
10962 13701 13703 28
10963 13701 13704 28
10964 13701 13705 28
10965 13706 13707 28
10966 13706 13708 28
10967 13706 13709 28
10968 13706 13710 28
10969 13711 13712 28
10970 13711 13713 28
10971 13711 13714 28
10972 13711 13715 28
10973 13716 13717 28
10974 13716 13718 28
10975 13716 13719 28
10976 13716 13720 28
10977 13721 13722 28
10978 13721 13723 28
10979 13721 13724 28
10980 13721 13725 28
10981 13726 13727 28
10982 13726 13728 28
10983 13726 13729 28
10984 13726 13730 28
10985 13731 13732 28
10986 13731 13733 28
10987 13731 13734 28
10988 13731 13735 28
10989 13736 13737 28
10990 13736 13738 28
10991 13736 13739 28
10992 13736 13740 28
10993 13741 13742 28
10994 13741 13743 28
10995 13741 13744 28
10996 13741 13745 28
10997 13746 13747 28
10998 13746 13748 28
10999 13746 13749 28
11000 13746 13750 28
11001 13751 13752 28
11002 13751 13753 28
11003 13751 13754 28
11004 13751 13755 28
11005 13756 13757 28
11006 13756 13758 28
11007 13756 13759 28
11008 13756 13760 28
11009 13761 13762 28
11010 13761 13763 28
11011 13761 13764 28
11012 13761 13765 28
11013 13766 13767 28
11014 13766 13768 28
11015 13766 13769 28
11016 13766 13770 28
11017 13771 13772 28
11018 13771 13773 28
11019 13771 13774 28
11020 13771 13775 28
11021 13776 13777 28
11022 13776 13778 28
11023 13776 13779 28
11024 13776 13780 28
11025 13781 13782 28
11026 13781 13783 28
11027 13781 13784 28
11028 13781 13785 28
11029 13786 13787 28
11030 13786 13788 28
11031 13786 13789 28
11032 13786 13790 28
11033 13791 13792 28
11034 13791 13793 28
11035 13791 13794 28
11036 13791 13795 28
11037 13796 13797 28
11038 13796 13798 28
11039 13796 13799 28
11040 13796 13800 28
11041 13801 13802 28
11042 13801 13803 28
11043 13801 13804 28
11044 13801 13805 28
11045 13806 13807 28
11046 13806 13808 28
11047 13806 13809 28
11048 13806 13810 28
11049 13811 13812 28
11050 13811 13813 28
11051 13811 13814 28
11052 13811 13815 28
11053 13816 13817 28
11054 13816 13818 28
11055 13816 13819 28
11056 13816 13820 28
11057 13821 13822 28
11058 13821 13823 28
11059 13821 13824 28
11060 13821 13825 28
11061 13826 13827 28
11062 13826 13828 28
11063 13826 13829 28
11064 13826 13830 28
11065 13831 13832 28
11066 13831 13833 28
11067 13831 13834 28
11068 13831 13835 28
11069 13836 13837 28
11070 13836 13838 28
11071 13836 13839 28
11072 13836 13840 28
11073 13841 13842 28
11074 13841 13843 28
11075 13841 13844 28
11076 13841 13845 28
11077 13846 13847 28
11078 13846 13848 28
11079 13846 13849 28
11080 13846 13850 28
11081 13851 13852 28
11082 13851 13853 28
11083 13851 13854 28
11084 13851 13855 28
11085 13856 13857 28
11086 13856 13858 28
11087 13856 13859 28
11088 13856 13860 28
11089 13861 13862 28
11090 13861 13863 28
11091 13861 13864 28
11092 13861 13865 28
11093 13866 13867 28
11094 13866 13868 28
11095 13866 13869 28
11096 13866 13870 28
11097 13871 13872 28
11098 13871 13873 28
11099 13871 13874 28
11100 13871 13875 28
11101 13876 13877 28
11102 13876 13878 28
11103 13876 13879 28
11104 13876 13880 28
11105 13881 13882 28
11106 13881 13883 28
11107 13881 13884 28
11108 13881 13885 28
11109 13886 13887 28
11110 13886 13888 28
11111 13886 13889 28
11112 13886 13890 28
11113 13891 13892 28
11114 13891 13893 28
11115 13891 13894 28
11116 13891 13895 28
11117 13896 13897 28
11118 13896 13898 28
11119 13896 13899 28
11120 13896 13900 28
11121 13901 13902 28
11122 13901 13903 28
11123 13901 13904 28
11124 13901 13905 28
11125 13906 13907 28
11126 13906 13908 28
11127 13906 13909 28
11128 13906 13910 28
11129 13911 13912 28
11130 13911 13913 28
11131 13911 13914 28
11132 13911 13915 28
11133 13916 13917 28
11134 13916 13918 28
11135 13916 13919 28
11136 13916 13920 28
11137 13921 13922 28
11138 13921 13923 28
11139 13921 13924 28
11140 13921 13925 28
11141 13926 13927 28
11142 13926 13928 28
11143 13926 13929 28
11144 13926 13930 28
11145 13931 13932 28
11146 13931 13933 28
11147 13931 13934 28
11148 13931 13935 28
11149 13936 13937 28
11150 13936 13938 28
11151 13936 13939 28
11152 13936 13940 28
11153 13941 13942 28
11154 13941 13943 28
11155 13941 13944 28
11156 13941 13945 28
11157 13946 13947 28
11158 13946 13948 28
11159 13946 13949 28
11160 13946 13950 28
11161 13951 13952 28
11162 13951 13953 28
11163 13951 13954 28
11164 13951 13955 28
11165 13956 13957 28
11166 13956 13958 28
11167 13956 13959 28
11168 13956 13960 28
11169 13961 13962 28
11170 13961 13963 28
11171 13961 13964 28
11172 13961 13965 28
11173 13966 13967 28
11174 13966 13968 28
11175 13966 13969 28
11176 13966 13970 28
11177 13971 13972 28
11178 13971 13973 28
11179 13971 13974 28
11180 13971 13975 28
11181 13976 13977 28
11182 13976 13978 28
11183 13976 13979 28
11184 13976 13980 28
11185 13981 13982 28
11186 13981 13983 28
11187 13981 13984 28
11188 13981 13985 28
11189 13986 13987 28
11190 13986 13988 28
11191 13986 13989 28
11192 13986 13990 28
11193 13991 13992 28
11194 13991 13993 28
11195 13991 13994 28
11196 13991 13995 28
11197 13996 13997 28
11198 13996 13998 28
11199 13996 13999 28
11200 13996 14000 28
11201 14001 14002 28
11202 14001 14003 28
11203 14001 14004 28
11204 14001 14005 28
11205 14006 14007 28
11206 14006 14008 28
11207 14006 14009 28
11208 14006 14010 28
11209 14011 14012 28
11210 14011 14013 28
11211 14011 14014 28
11212 14011 14015 28
11213 14016 14017 28
11214 14016 14018 28
11215 14016 14019 28
11216 14016 14020 28
11217 14021 14022 28
11218 14021 14023 28
11219 14021 14024 28
11220 14021 14025 28
11221 14026 14027 28
11222 14026 14028 28
11223 14026 14029 28
11224 14026 14030 28
11225 14031 14032 28
11226 14031 14033 28
11227 14031 14034 28
11228 14031 14035 28
11229 14036 14037 28
11230 14036 14038 28
11231 14036 14039 28
11232 14036 14040 28
11233 14041 14042 28
11234 14041 14043 28
11235 14041 14044 28
11236 14041 14045 28
11237 14046 14047 28
11238 14046 14048 28
11239 14046 14049 28
11240 14046 14050 28
11241 14051 14052 28
11242 14051 14053 28
11243 14051 14054 28
11244 14051 14055 28
11245 14056 14057 28
11246 14056 14058 28
11247 14056 14059 28
11248 14056 14060 28
11249 14061 14062 28
11250 14061 14063 28
11251 14061 14064 28
11252 14061 14065 28
11253 14066 14067 28
11254 14066 14068 28
11255 14066 14069 28
11256 14066 14070 28
11257 14071 14072 28
11258 14071 14073 28
11259 14071 14074 28
11260 14071 14075 28
11261 14076 14077 28
11262 14076 14078 28
11263 14076 14079 28
11264 14076 14080 28
11265 14081 14082 28
11266 14081 14083 28
11267 14081 14084 28
11268 14081 14085 28
11269 14086 14087 28
11270 14086 14088 28
11271 14086 14089 28
11272 14086 14090 28
11273 14091 14092 28
11274 14091 14093 28
11275 14091 14094 28
11276 14091 14095 28
11277 14096 14097 28
11278 14096 14098 28
11279 14096 14099 28
11280 14096 14100 28
11281 14101 14102 28
11282 14101 14103 28
11283 14101 14104 28
11284 14101 14105 28
11285 14106 14107 28
11286 14106 14108 28
11287 14106 14109 28
11288 14106 14110 28
11289 14111 14112 28
11290 14111 14113 28
11291 14111 14114 28
11292 14111 14115 28
11293 14116 14117 28
11294 14116 14118 28
11295 14116 14119 28
11296 14116 14120 28
11297 14121 14122 28
11298 14121 14123 28
11299 14121 14124 28
11300 14121 14125 28
11301 14126 14127 28
11302 14126 14128 28
11303 14126 14129 28
11304 14126 14130 28
11305 14131 14132 28
11306 14131 14133 28
11307 14131 14134 28
11308 14131 14135 28
11309 14136 14137 28
11310 14136 14138 28
11311 14136 14139 28
11312 14136 14140 28
11313 14141 14142 28
11314 14141 14143 28
11315 14141 14144 28
11316 14141 14145 28
11317 14146 14147 28
11318 14146 14148 28
11319 14146 14149 28
11320 14146 14150 28
11321 14151 14152 28
11322 14151 14153 28
11323 14151 14154 28
11324 14151 14155 28
11325 14156 14157 28
11326 14156 14158 28
11327 14156 14159 28
11328 14156 14160 28
11329 14161 14162 28
11330 14161 14163 28
11331 14161 14164 28
11332 14161 14165 28
11333 14166 14167 28
11334 14166 14168 28
11335 14166 14169 28
11336 14166 14170 28
11337 14171 14172 28
11338 14171 14173 28
11339 14171 14174 28
11340 14171 14175 28
11341 14176 14177 28
11342 14176 14178 28
11343 14176 14179 28
11344 14176 14180 28
11345 14181 14182 28
11346 14181 14183 28
11347 14181 14184 28
11348 14181 14185 28
11349 14186 14187 28
11350 14186 14188 28
11351 14186 14189 28
11352 14186 14190 28
11353 14191 14192 28
11354 14191 14193 28
11355 14191 14194 28
11356 14191 14195 28
11357 14196 14197 28
11358 14196 14198 28
11359 14196 14199 28
11360 14196 14200 28
11361 14201 14202 28
11362 14201 14203 28
11363 14201 14204 28
11364 14201 14205 28
11365 14206 14207 28
11366 14206 14208 28
11367 14206 14209 28
11368 14206 14210 28
11369 14211 14212 28
11370 14211 14213 28
11371 14211 14214 28
11372 14211 14215 28
11373 14216 14217 28
11374 14216 14218 28
11375 14216 14219 28
11376 14216 14220 28
11377 14221 14222 28
11378 14221 14223 28
11379 14221 14224 28
11380 14221 14225 28
11381 14226 14227 28
11382 14226 14228 28
11383 14226 14229 28
11384 14226 14230 28
11385 14231 14232 28
11386 14231 14233 28
11387 14231 14234 28
11388 14231 14235 28
11389 14236 14237 28
11390 14236 14238 28
11391 14236 14239 28
11392 14236 14240 28
11393 14241 14242 28
11394 14241 14243 28
11395 14241 14244 28
11396 14241 14245 28
11397 14246 14247 28
11398 14246 14248 28
11399 14246 14249 28
11400 14246 14250 28
11401 14251 14252 28
11402 14251 14253 28
11403 14251 14254 28
11404 14251 14255 28
11405 14256 14257 28
11406 14256 14258 28
11407 14256 14259 28
11408 14256 14260 28
11409 14261 14262 28
11410 14261 14263 28
11411 14261 14264 28
11412 14261 14265 28
11413 14266 14267 28
11414 14266 14268 28
11415 14266 14269 28
11416 14266 14270 28
11417 14271 14272 28
11418 14271 14273 28
11419 14271 14274 28
11420 14271 14275 28
11421 14276 14277 28
11422 14276 14278 28
11423 14276 14279 28
11424 14276 14280 28
11425 14281 14282 28
11426 14281 14283 28
11427 14281 14284 28
11428 14281 14285 28
11429 14286 14287 28
11430 14286 14288 28
11431 14286 14289 28
11432 14286 14290 28
11433 14291 14292 28
11434 14291 14293 28
11435 14291 14294 28
11436 14291 14295 28
11437 14296 14297 28
11438 14296 14298 28
11439 14296 14299 28
11440 14296 14300 28
11441 14301 14302 28
11442 14301 14303 28
11443 14301 14304 28
11444 14301 14305 28
11445 14306 14307 28
11446 14306 14308 28
11447 14306 14309 28
11448 14306 14310 28
11449 14311 14312 28
11450 14311 14313 28
11451 14311 14314 28
11452 14311 14315 28
11453 14316 14317 28
11454 14316 14318 28
11455 14316 14319 28
11456 14316 14320 28
11457 14321 14322 28
11458 14321 14323 28
11459 14321 14324 28
11460 14321 14325 28
11461 14326 14327 28
11462 14326 14328 28
11463 14326 14329 28
11464 14326 14330 28
11465 14331 14332 28
11466 14331 14333 28
11467 14331 14334 28
11468 14331 14335 28
11469 14336 14337 28
11470 14336 14338 28
11471 14336 14339 28
11472 14336 14340 28
11473 14341 14342 28
11474 14341 14343 28
11475 14341 14344 28
11476 14341 14345 28
11477 14346 14347 28
11478 14346 14348 28
11479 14346 14349 28
11480 14346 14350 28
11481 14351 14352 28
11482 14351 14353 28
11483 14351 14354 28
11484 14351 14355 28
11485 14356 14357 28
11486 14356 14358 28
11487 14356 14359 28
11488 14356 14360 28
11489 14361 14362 28
11490 14361 14363 28
11491 14361 14364 28
11492 14361 14365 28
11493 14366 14367 28
11494 14366 14368 28
11495 14366 14369 28
11496 14366 14370 28
11497 14371 14372 28
11498 14371 14373 28
11499 14371 14374 28
11500 14371 14375 28
11501 14376 14377 28
11502 14376 14378 28
11503 14376 14379 28
11504 14376 14380 28
11505 14381 14382 28
11506 14381 14383 28
11507 14381 14384 28
11508 14381 14385 28
11509 14386 14387 28
11510 14386 14388 28
11511 14386 14389 28
11512 14386 14390 28
11513 14391 14392 28
11514 14391 14393 28
11515 14391 14394 28
11516 14391 14395 28
11517 14396 14397 28
11518 14396 14398 28
11519 14396 14399 28
11520 14396 14400 28
11521 14401 14402 28
11522 14401 14403 28
11523 14401 14404 28
11524 14401 14405 28
11525 14406 14407 28
11526 14406 14408 28
11527 14406 14409 28
11528 14406 14410 28
11529 14411 14412 28
11530 14411 14413 28
11531 14411 14414 28
11532 14411 14415 28
11533 14416 14417 28
11534 14416 14418 28
11535 14416 14419 28
11536 14416 14420 28
11537 14421 14422 28
11538 14421 14423 28
11539 14421 14424 28
11540 14421 14425 28
11541 14426 14427 28
11542 14426 14428 28
11543 14426 14429 28
11544 14426 14430 28
11545 14431 14432 28
11546 14431 14433 28
11547 14431 14434 28
11548 14431 14435 28
11549 14436 14437 28
11550 14436 14438 28
11551 14436 14439 28
11552 14436 14440 28
11553 14441 14442 28
11554 14441 14443 28
11555 14441 14444 28
11556 14441 14445 28
11557 14446 14447 28
11558 14446 14448 28
11559 14446 14449 28
11560 14446 14450 28
11561 14451 14452 28
11562 14451 14453 28
11563 14451 14454 28
11564 14451 14455 28
11565 14456 14457 28
11566 14456 14458 28
11567 14456 14459 28
11568 14456 14460 28
11569 14461 14462 28
11570 14461 14463 28
11571 14461 14464 28
11572 14461 14465 28
11573 14466 14467 28
11574 14466 14468 28
11575 14466 14469 28
11576 14466 14470 28
11577 14471 14472 28
11578 14471 14473 28
11579 14471 14474 28
11580 14471 14475 28
11581 14476 14477 28
11582 14476 14478 28
11583 14476 14479 28
11584 14476 14480 28
11585 14481 14482 28
11586 14481 14483 28
11587 14481 14484 28
11588 14481 14485 28
11589 14486 14487 28
11590 14486 14488 28
11591 14486 14489 28
11592 14486 14490 28
11593 14491 14492 28
11594 14491 14493 28
11595 14491 14494 28
11596 14491 14495 28
11597 14496 14497 28
11598 14496 14498 28
11599 14496 14499 28
11600 14496 14500 28
11601 14501 14502 28
11602 14501 14503 28
11603 14501 14504 28
11604 14501 14505 28
11605 14506 14507 28
11606 14506 14508 28
11607 14506 14509 28
11608 14506 14510 28
11609 14511 14512 28
11610 14511 14513 28
11611 14511 14514 28
11612 14511 14515 28
11613 14516 14517 28
11614 14516 14518 28
11615 14516 14519 28
11616 14516 14520 28
11617 14521 14522 28
11618 14521 14523 28
11619 14521 14524 28
11620 14521 14525 28
11621 14526 14527 28
11622 14526 14528 28
11623 14526 14529 28
11624 14526 14530 28
11625 14531 14532 28
11626 14531 14533 28
11627 14531 14534 28
11628 14531 14535 28
11629 14536 14537 28
11630 14536 14538 28
11631 14536 14539 28
11632 14536 14540 28
11633 14541 14542 28
11634 14541 14543 28
11635 14541 14544 28
11636 14541 14545 28
11637 14546 14547 28
11638 14546 14548 28
11639 14546 14549 28
11640 14546 14550 28
11641 14551 14552 28
11642 14551 14553 28
11643 14551 14554 28
11644 14551 14555 28
11645 14556 14557 28
11646 14556 14558 28
11647 14556 14559 28
11648 14556 14560 28
11649 14561 14562 28
11650 14561 14563 28
11651 14561 14564 28
11652 14561 14565 28
11653 14566 14567 28
11654 14566 14568 28
11655 14566 14569 28
11656 14566 14570 28
11657 14571 14572 28
11658 14571 14573 28
11659 14571 14574 28
11660 14571 14575 28
11661 14576 14577 28
11662 14576 14578 28
11663 14576 14579 28
11664 14576 14580 28
11665 14581 14582 28
11666 14581 14583 28
11667 14581 14584 28
11668 14581 14585 28
11669 14586 14587 28
11670 14586 14588 28
11671 14586 14589 28
11672 14586 14590 28
11673 14591 14592 28
11674 14591 14593 28
11675 14591 14594 28
11676 14591 14595 28
11677 14596 14597 28
11678 14596 14598 28
11679 14596 14599 28
11680 14596 14600 28
11681 14601 14602 28
11682 14601 14603 28
11683 14601 14604 28
11684 14601 14605 28
11685 14606 14607 28
11686 14606 14608 28
11687 14606 14609 28
11688 14606 14610 28
11689 14611 14612 28
11690 14611 14613 28
11691 14611 14614 28
11692 14611 14615 28
11693 14616 14617 28
11694 14616 14618 28
11695 14616 14619 28
11696 14616 14620 28
11697 14621 14622 28
11698 14621 14623 28
11699 14621 14624 28
11700 14621 14625 28
11701 14626 14627 28
11702 14626 14628 28
11703 14626 14629 28
11704 14626 14630 28
11705 14631 14632 28
11706 14631 14633 28
11707 14631 14634 28
11708 14631 14635 28
11709 14636 14637 28
11710 14636 14638 28
11711 14636 14639 28
11712 14636 14640 28
11713 14641 14642 28
11714 14641 14643 28
11715 14641 14644 28
11716 14641 14645 28
11717 14646 14647 28
11718 14646 14648 28
11719 14646 14649 28
11720 14646 14650 28
11721 14651 14652 28
11722 14651 14653 28
11723 14651 14654 28
11724 14651 14655 28
11725 14656 14657 28
11726 14656 14658 28
11727 14656 14659 28
11728 14656 14660 28
11729 14661 14662 28
11730 14661 14663 28
11731 14661 14664 28
11732 14661 14665 28
11733 14666 14667 28
11734 14666 14668 28
11735 14666 14669 28
11736 14666 14670 28
11737 14671 14672 28
11738 14671 14673 28
11739 14671 14674 28
11740 14671 14675 28
11741 14676 14677 28
11742 14676 14678 28
11743 14676 14679 28
11744 14676 14680 28
11745 14681 14682 28
11746 14681 14683 28
11747 14681 14684 28
11748 14681 14685 28
11749 14686 14687 28
11750 14686 14688 28
11751 14686 14689 28
11752 14686 14690 28
11753 14691 14692 28
11754 14691 14693 28
11755 14691 14694 28
11756 14691 14695 28
11757 14696 14697 28
11758 14696 14698 28
11759 14696 14699 28
11760 14696 14700 28
11761 14701 14702 28
11762 14701 14703 28
11763 14701 14704 28
11764 14701 14705 28
11765 14706 14707 28
11766 14706 14708 28
11767 14706 14709 28
11768 14706 14710 28
11769 14711 14712 28
11770 14711 14713 28
11771 14711 14714 28
11772 14711 14715 28
11773 14716 14717 28
11774 14716 14718 28
11775 14716 14719 28
11776 14716 14720 28
11777 14721 14722 28
11778 14721 14723 28
11779 14721 14724 28
11780 14721 14725 28
11781 14726 14727 28
11782 14726 14728 28
11783 14726 14729 28
11784 14726 14730 28
11785 14731 14732 28
11786 14731 14733 28
11787 14731 14734 28
11788 14731 14735 28
11789 14736 14737 28
11790 14736 14738 28
11791 14736 14739 28
11792 14736 14740 28
11793 14741 14742 28
11794 14741 14743 28
11795 14741 14744 28
11796 14741 14745 28
11797 14746 14747 28
11798 14746 14748 28
11799 14746 14749 28
11800 14746 14750 28
11801 14751 14752 28
11802 14751 14753 28
11803 14751 14754 28
11804 14751 14755 28
11805 14756 14757 28
11806 14756 14758 28
11807 14756 14759 28
11808 14756 14760 28
11809 14761 14762 28
11810 14761 14763 28
11811 14761 14764 28
11812 14761 14765 28
11813 14766 14767 28
11814 14766 14768 28
11815 14766 14769 28
11816 14766 14770 28
11817 14771 14772 28
11818 14771 14773 28
11819 14771 14774 28
11820 14771 14775 28
11821 14776 14777 28
11822 14776 14778 28
11823 14776 14779 28
11824 14776 14780 28
11825 14781 14782 28
11826 14781 14783 28
11827 14781 14784 28
11828 14781 14785 28
11829 14786 14787 28
11830 14786 14788 28
11831 14786 14789 28
11832 14786 14790 28
11833 14791 14792 28
11834 14791 14793 28
11835 14791 14794 28
11836 14791 14795 28
11837 14796 14797 28
11838 14796 14798 28
11839 14796 14799 28
11840 14796 14800 28
11841 14801 14802 28
11842 14801 14803 28
11843 14801 14804 28
11844 14801 14805 28
11845 14806 14807 28
11846 14806 14808 28
11847 14806 14809 28
11848 14806 14810 28
11849 14811 14812 28
11850 14811 14813 28
11851 14811 14814 28
11852 14811 14815 28
11853 14816 14817 28
11854 14816 14818 28
11855 14816 14819 28
11856 14816 14820 28
11857 14821 14822 28
11858 14821 14823 28
11859 14821 14824 28
11860 14821 14825 28
11861 14826 14827 28
11862 14826 14828 28
11863 14826 14829 28
11864 14826 14830 28
11865 14831 14832 28
11866 14831 14833 28
11867 14831 14834 28
11868 14831 14835 28
11869 14836 14837 28
11870 14836 14838 28
11871 14836 14839 28
11872 14836 14840 28
11873 14841 14842 28
11874 14841 14843 28
11875 14841 14844 28
11876 14841 14845 28
11877 14846 14847 28
11878 14846 14848 28
11879 14846 14849 28
11880 14846 14850 28
11881 14851 14852 28
11882 14851 14853 28
11883 14851 14854 28
11884 14851 14855 28
11885 14856 14857 28
11886 14856 14858 28
11887 14856 14859 28
11888 14856 14860 28
11889 14861 14862 28
11890 14861 14863 28
11891 14861 14864 28
11892 14861 14865 28
11893 14866 14867 28
11894 14866 14868 28
11895 14866 14869 28
11896 14866 14870 28
11897 14871 14872 28
11898 14871 14873 28
11899 14871 14874 28
11900 14871 14875 28
11901 14876 14877 28
11902 14876 14878 28
11903 14876 14879 28
11904 14876 14880 28
11905 14881 14882 28
11906 14881 14883 28
11907 14881 14884 28
11908 14881 14885 28
11909 14886 14887 28
11910 14886 14888 28
11911 14886 14889 28
11912 14886 14890 28
11913 14891 14892 28
11914 14891 14893 28
11915 14891 14894 28
11916 14891 14895 28
11917 14896 14897 28
11918 14896 14898 28
11919 14896 14899 28
11920 14896 14900 28
11921 14901 14902 28
11922 14901 14903 28
11923 14901 14904 28
11924 14901 14905 28
11925 14906 14907 28
11926 14906 14908 28
11927 14906 14909 28
11928 14906 14910 28
11929 14911 14912 28
11930 14911 14913 28
11931 14911 14914 28
11932 14911 14915 28
11933 14916 14917 28
11934 14916 14918 28
11935 14916 14919 28
11936 14916 14920 28
11937 14921 14922 28
11938 14921 14923 28
11939 14921 14924 28
11940 14921 14925 28
11941 14926 14927 28
11942 14926 14928 28
11943 14926 14929 28
11944 14926 14930 28
11945 14931 14932 28
11946 14931 14933 28
11947 14931 14934 28
11948 14931 14935 28
11949 14936 14937 28
11950 14936 14938 28
11951 14936 14939 28
11952 14936 14940 28
11953 14941 14942 28
11954 14941 14943 28
11955 14941 14944 28
11956 14941 14945 28
11957 14946 14947 28
11958 14946 14948 28
11959 14946 14949 28
11960 14946 14950 28
11961 14951 14952 28
11962 14951 14953 28
11963 14951 14954 28
11964 14951 14955 28
11965 14956 14957 28
11966 14956 14958 28
11967 14956 14959 28
11968 14956 14960 28
11969 14961 14962 28
11970 14961 14963 28
11971 14961 14964 28
11972 14961 14965 28
11973 14966 14967 28
11974 14966 14968 28
11975 14966 14969 28
11976 14966 14970 28
11977 14971 14972 28
11978 14971 14973 28
11979 14971 14974 28
11980 14971 14975 28
11981 14976 14977 28
11982 14976 14978 28
11983 14976 14979 28
11984 14976 14980 28
11985 14981 14982 28
11986 14981 14983 28
11987 14981 14984 28
11988 14981 14985 28
11989 14986 14987 28
11990 14986 14988 28
11991 14986 14989 28
11992 14986 14990 28
11993 14991 14992 28
11994 14991 14993 28
11995 14991 14994 28
11996 14991 14995 28
11997 14996 14997 28
11998 14996 14998 28
11999 14996 14999 28
12000 14996 15000 28
12001 15001 15002 28
12002 15001 15003 28
12003 15001 15004 28
12004 15001 15005 28
12005 15006 15007 28
12006 15006 15008 28
12007 15006 15009 28
12008 15006 15010 28
12009 15011 15012 28
12010 15011 15013 28
12011 15011 15014 28
12012 15011 15015 28
12013 15016 15017 28
12014 15016 15018 28
12015 15016 15019 28
12016 15016 15020 28
12017 15021 15022 28
12018 15021 15023 28
12019 15021 15024 28
12020 15021 15025 28
12021 15026 15027 28
12022 15026 15028 28
12023 15026 15029 28
12024 15026 15030 28
12025 15031 15032 28
12026 15031 15033 28
12027 15031 15034 28
12028 15031 15035 28
12029 15036 15037 28
12030 15036 15038 28
12031 15036 15039 28
12032 15036 15040 28
12033 15041 15042 28
12034 15041 15043 28
12035 15041 15044 28
12036 15041 15045 28
12037 15046 15047 28
12038 15046 15048 28
12039 15046 15049 28
12040 15046 15050 28
12041 15051 15052 28
12042 15051 15053 28
12043 15051 15054 28
12044 15051 15055 28
12045 15056 15057 28
12046 15056 15058 28
12047 15056 15059 28
12048 15056 15060 28
12049 15061 15062 28
12050 15061 15063 28
12051 15061 15064 28
12052 15061 15065 28
12053 15066 15067 28
12054 15066 15068 28
12055 15066 15069 28
12056 15066 15070 28
12057 15071 15072 28
12058 15071 15073 28
12059 15071 15074 28
12060 15071 15075 28
12061 15076 15077 28
12062 15076 15078 28
12063 15076 15079 28
12064 15076 15080 28
12065 15081 15082 28
12066 15081 15083 28
12067 15081 15084 28
12068 15081 15085 28
12069 15086 15087 28
12070 15086 15088 28
12071 15086 15089 28
12072 15086 15090 28
12073 15091 15092 28
12074 15091 15093 28
12075 15091 15094 28
12076 15091 15095 28
12077 15096 15097 28
12078 15096 15098 28
12079 15096 15099 28
12080 15096 15100 28
12081 15101 15102 28
12082 15101 15103 28
12083 15101 15104 28
12084 15101 15105 28
12085 15106 15107 28
12086 15106 15108 28
12087 15106 15109 28
12088 15106 15110 28
12089 15111 15112 28
12090 15111 15113 28
12091 15111 15114 28
12092 15111 15115 28
12093 15116 15117 28
12094 15116 15118 28
12095 15116 15119 28
12096 15116 15120 28
12097 15121 15122 28
12098 15121 15123 28
12099 15121 15124 28
12100 15121 15125 28
12101 15126 15127 28
12102 15126 15128 28
12103 15126 15129 28
12104 15126 15130 28
12105 15131 15132 28
12106 15131 15133 28
12107 15131 15134 28
12108 15131 15135 28
12109 15136 15137 28
12110 15136 15138 28
12111 15136 15139 28
12112 15136 15140 28
12113 15141 15142 28
12114 15141 15143 28
12115 15141 15144 28
12116 15141 15145 28
12117 15146 15147 28
12118 15146 15148 28
12119 15146 15149 28
12120 15146 15150 28
12121 15151 15152 28
12122 15151 15153 28
12123 15151 15154 28
12124 15151 15155 28
12125 15156 15157 28
12126 15156 15158 28
12127 15156 15159 28
12128 15156 15160 28
12129 15161 15162 28
12130 15161 15163 28
12131 15161 15164 28
12132 15161 15165 28
12133 15166 15167 28
12134 15166 15168 28
12135 15166 15169 28
12136 15166 15170 28
12137 15171 15172 28
12138 15171 15173 28
12139 15171 15174 28
12140 15171 15175 28
12141 15176 15177 28
12142 15176 15178 28
12143 15176 15179 28
12144 15176 15180 28
12145 15181 15182 28
12146 15181 15183 28
12147 15181 15184 28
12148 15181 15185 28
12149 15186 15187 28
12150 15186 15188 28
12151 15186 15189 28
12152 15186 15190 28
12153 15191 15192 28
12154 15191 15193 28
12155 15191 15194 28
12156 15191 15195 28
12157 15196 15197 28
12158 15196 15198 28
12159 15196 15199 28
12160 15196 15200 28
12161 15201 15202 28
12162 15201 15203 28
12163 15201 15204 28
12164 15201 15205 28
12165 15206 15207 28
12166 15206 15208 28
12167 15206 15209 28
12168 15206 15210 28
12169 15211 15212 28
12170 15211 15213 28
12171 15211 15214 28
12172 15211 15215 28
12173 15216 15217 28
12174 15216 15218 28
12175 15216 15219 28
12176 15216 15220 28
12177 15221 15222 28
12178 15221 15223 28
12179 15221 15224 28
12180 15221 15225 28
12181 15226 15227 28
12182 15226 15228 28
12183 15226 15229 28
12184 15226 15230 28
12185 15231 15232 28
12186 15231 15233 28
12187 15231 15234 28
12188 15231 15235 28
12189 15236 15237 28
12190 15236 15238 28
12191 15236 15239 28
12192 15236 15240 28
12193 15241 15242 28
12194 15241 15243 28
12195 15241 15244 28
12196 15241 15245 28
12197 15246 15247 28
12198 15246 15248 28
12199 15246 15249 28
12200 15246 15250 28
12201 15251 15252 28
12202 15251 15253 28
12203 15251 15254 28
12204 15251 15255 28
12205 15256 15257 28
12206 15256 15258 28
12207 15256 15259 28
12208 15256 15260 28
12209 15261 15262 28
12210 15261 15263 28
12211 15261 15264 28
12212 15261 15265 28
12213 15266 15267 28
12214 15266 15268 28
12215 15266 15269 28
12216 15266 15270 28
12217 15271 15272 28
12218 15271 15273 28
12219 15271 15274 28
12220 15271 15275 28
12221 15276 15277 28
12222 15276 15278 28
12223 15276 15279 28
12224 15276 15280 28
12225 15281 15282 28
12226 15281 15283 28
12227 15281 15284 28
12228 15281 15285 28
12229 15286 15287 28
12230 15286 15288 28
12231 15286 15289 28
12232 15286 15290 28
12233 15291 15292 28
12234 15291 15293 28
12235 15291 15294 28
12236 15291 15295 28
12237 15296 15297 28
12238 15296 15298 28
12239 15296 15299 28
12240 15296 15300 28
12241 15301 15302 28
12242 15301 15303 28
12243 15301 15304 28
12244 15301 15305 28
12245 15306 15307 28
12246 15306 15308 28
12247 15306 15309 28
12248 15306 15310 28
12249 15311 15312 28
12250 15311 15313 28
12251 15311 15314 28
12252 15311 15315 28
12253 15316 15317 28
12254 15316 15318 28
12255 15316 15319 28
12256 15316 15320 28
12257 15321 15322 28
12258 15321 15323 28
12259 15321 15324 28
12260 15321 15325 28
12261 15326 15327 28
12262 15326 15328 28
12263 15326 15329 28
12264 15326 15330 28
12265 15331 15332 28
12266 15331 15333 28
12267 15331 15334 28
12268 15331 15335 28
12269 15336 15337 28
12270 15336 15338 28
12271 15336 15339 28
12272 15336 15340 28
12273 15341 15342 28
12274 15341 15343 28
12275 15341 15344 28
12276 15341 15345 28
12277 15346 15347 28
12278 15346 15348 28
12279 15346 15349 28
12280 15346 15350 28
12281 15351 15352 28
12282 15351 15353 28
12283 15351 15354 28
12284 15351 15355 28
12285 15356 15357 28
12286 15356 15358 28
12287 15356 15359 28
12288 15356 15360 28
12289 15361 15362 28
12290 15361 15363 28
12291 15361 15364 28
12292 15361 15365 28
12293 15366 15367 28
12294 15366 15368 28
12295 15366 15369 28
12296 15366 15370 28
12297 15371 15372 28
12298 15371 15373 28
12299 15371 15374 28
12300 15371 15375 28
12301 15376 15377 28
12302 15376 15378 28
12303 15376 15379 28
12304 15376 15380 28
12305 15381 15382 28
12306 15381 15383 28
12307 15381 15384 28
12308 15381 15385 28
12309 15386 15387 28
12310 15386 15388 28
12311 15386 15389 28
12312 15386 15390 28
12313 15391 15392 28
12314 15391 15393 28
12315 15391 15394 28
12316 15391 15395 28
12317 15396 15397 28
12318 15396 15398 28
12319 15396 15399 28
12320 15396 15400 28
12321 15401 15402 28
12322 15401 15403 28
12323 15401 15404 28
12324 15401 15405 28
12325 15406 15407 28
12326 15406 15408 28
12327 15406 15409 28
12328 15406 15410 28
12329 15411 15412 28
12330 15411 15413 28
12331 15411 15414 28
12332 15411 15415 28
12333 15416 15417 28
12334 15416 15418 28
12335 15416 15419 28
12336 15416 15420 28
12337 15421 15422 28
12338 15421 15423 28
12339 15421 15424 28
12340 15421 15425 28
12341 15426 15427 28
12342 15426 15428 28
12343 15426 15429 28
12344 15426 15430 28
12345 15431 15432 28
12346 15431 15433 28
12347 15431 15434 28
12348 15431 15435 28
12349 15436 15437 28
12350 15436 15438 28
12351 15436 15439 28
12352 15436 15440 28
12353 15441 15442 28
12354 15441 15443 28
12355 15441 15444 28
12356 15441 15445 28
12357 15446 15447 28
12358 15446 15448 28
12359 15446 15449 28
12360 15446 15450 28
12361 15451 15452 28
12362 15451 15453 28
12363 15451 15454 28
12364 15451 15455 28
12365 15456 15457 28
12366 15456 15458 28
12367 15456 15459 28
12368 15456 15460 28
12369 15461 15462 28
12370 15461 15463 28
12371 15461 15464 28
12372 15461 15465 28
12373 15466 15467 28
12374 15466 15468 28
12375 15466 15469 28
12376 15466 15470 28
12377 15471 15472 28
12378 15471 15473 28
12379 15471 15474 28
12380 15471 15475 28
12381 15476 15477 28
12382 15476 15478 28
12383 15476 15479 28
12384 15476 15480 28
12385 15481 15482 28
12386 15481 15483 28
12387 15481 15484 28
12388 15481 15485 28
12389 15486 15487 28
12390 15486 15488 28
12391 15486 15489 28
12392 15486 15490 28
12393 15491 15492 28
12394 15491 15493 28
12395 15491 15494 28
12396 15491 15495 28
12397 15496 15497 28
12398 15496 15498 28
12399 15496 15499 28
12400 15496 15500 28
12401 15501 15502 28
12402 15501 15503 28
12403 15501 15504 28
12404 15501 15505 28
12405 15506 15507 28
12406 15506 15508 28
12407 15506 15509 28
12408 15506 15510 28
12409 15511 15512 28
12410 15511 15513 28
12411 15511 15514 28
12412 15511 15515 28
12413 15516 15517 28
12414 15516 15518 28
12415 15516 15519 28
12416 15516 15520 28
12417 15521 15522 28
12418 15521 15523 28
12419 15521 15524 28
12420 15521 15525 28
12421 15526 15527 28
12422 15526 15528 28
12423 15526 15529 28
12424 15526 15530 28
12425 15531 15532 28
12426 15531 15533 28
12427 15531 15534 28
12428 15531 15535 28
12429 15536 15537 28
12430 15536 15538 28
12431 15536 15539 28
12432 15536 15540 28
12433 15541 15542 28
12434 15541 15543 28
12435 15541 15544 28
12436 15541 15545 28
12437 15546 15547 28
12438 15546 15548 28
12439 15546 15549 28
12440 15546 15550 28
12441 15551 15552 28
12442 15551 15553 28
12443 15551 15554 28
12444 15551 15555 28
12445 15556 15557 28
12446 15556 15558 28
12447 15556 15559 28
12448 15556 15560 28
12449 15561 15562 28
12450 15561 15563 28
12451 15561 15564 28
12452 15561 15565 28
12453 15566 15567 28
12454 15566 15568 28
12455 15566 15569 28
12456 15566 15570 28
12457 15571 15572 28
12458 15571 15573 28
12459 15571 15574 28
12460 15571 15575 28
12461 15576 15577 28
12462 15576 15578 28
12463 15576 15579 28
12464 15576 15580 28
12465 15581 15582 28
12466 15581 15583 28
12467 15581 15584 28
12468 15581 15585 28
12469 15586 15587 28
12470 15586 15588 28
12471 15586 15589 28
12472 15586 15590 28
12473 15591 15592 28
12474 15591 15593 28
12475 15591 15594 28
12476 15591 15595 28
12477 15596 15597 28
12478 15596 15598 28
12479 15596 15599 28
12480 15596 15600 28
12481 15601 15602 28
12482 15601 15603 28
12483 15601 15604 28
12484 15601 15605 28
12485 15606 15607 28
12486 15606 15608 28
12487 15606 15609 28
12488 15606 15610 28
12489 15611 15612 28
12490 15611 15613 28
12491 15611 15614 28
12492 15611 15615 28
12493 15616 15617 28
12494 15616 15618 28
12495 15616 15619 28
12496 15616 15620 28
12497 15621 15622 28
12498 15621 15623 28
12499 15621 15624 28
12500 15621 15625 28
12501 15626 15627 28
12502 15626 15628 28
12503 15626 15629 28
12504 15626 15630 28
12505 15631 15632 28
12506 15631 15633 28
12507 15631 15634 28
12508 15631 15635 28
12509 15636 15637 28
12510 15636 15638 28
12511 15636 15639 28
12512 15636 15640 28
12513 15641 15642 28
12514 15641 15643 28
12515 15641 15644 28
12516 15641 15645 28
12517 15646 15647 28
12518 15646 15648 28
12519 15646 15649 28
12520 15646 15650 28
12521 15651 15652 28
12522 15651 15653 28
12523 15651 15654 28
12524 15651 15655 28
12525 15656 15657 28
12526 15656 15658 28
12527 15656 15659 28
12528 15656 15660 28
12529 15661 15662 28
12530 15661 15663 28
12531 15661 15664 28
12532 15661 15665 28
12533 15666 15667 28
12534 15666 15668 28
12535 15666 15669 28
12536 15666 15670 28
12537 15671 15672 28
12538 15671 15673 28
12539 15671 15674 28
12540 15671 15675 28
12541 15676 15677 28
12542 15676 15678 28
12543 15676 15679 28
12544 15676 15680 28
12545 15681 15682 28
12546 15681 15683 28
12547 15681 15684 28
12548 15681 15685 28
12549 15686 15687 28
12550 15686 15688 28
12551 15686 15689 28
12552 15686 15690 28
12553 15691 15692 28
12554 15691 15693 28
12555 15691 15694 28
12556 15691 15695 28
12557 15696 15697 28
12558 15696 15698 28
12559 15696 15699 28
12560 15696 15700 28
12561 15701 15702 28
12562 15701 15703 28
12563 15701 15704 28
12564 15701 15705 28
12565 15706 15707 28
12566 15706 15708 28
12567 15706 15709 28
12568 15706 15710 28
12569 15711 15712 28
12570 15711 15713 28
12571 15711 15714 28
12572 15711 15715 28
12573 15716 15717 28
12574 15716 15718 28
12575 15716 15719 28
12576 15716 15720 28
12577 15721 15722 28
12578 15721 15723 28
12579 15721 15724 28
12580 15721 15725 28
12581 15726 15727 28
12582 15726 15728 28
12583 15726 15729 28
12584 15726 15730 28
12585 15731 15732 28
12586 15731 15733 28
12587 15731 15734 28
12588 15731 15735 28
12589 15736 15737 28
12590 15736 15738 28
12591 15736 15739 28
12592 15736 15740 28
12593 15741 15742 28
12594 15741 15743 28
12595 15741 15744 28
12596 15741 15745 28
12597 15746 15747 28
12598 15746 15748 28
12599 15746 15749 28
12600 15746 15750 28
12601 15751 15752 28
12602 15751 15753 28
12603 15751 15754 28
12604 15751 15755 28
12605 15756 15757 28
12606 15756 15758 28
12607 15756 15759 28
12608 15756 15760 28
12609 15761 15762 28
12610 15761 15763 28
12611 15761 15764 28
12612 15761 15765 28
12613 15766 15767 28
12614 15766 15768 28
12615 15766 15769 28
12616 15766 15770 28
12617 15771 15772 28
12618 15771 15773 28
12619 15771 15774 28
12620 15771 15775 28
12621 15776 15777 28
12622 15776 15778 28
12623 15776 15779 28
12624 15776 15780 28
12625 15781 15782 28
12626 15781 15783 28
12627 15781 15784 28
12628 15781 15785 28
12629 15786 15787 28
12630 15786 15788 28
12631 15786 15789 28
12632 15786 15790 28
12633 15791 15792 28
12634 15791 15793 28
12635 15791 15794 28
12636 15791 15795 28
12637 15796 15797 28
12638 15796 15798 28
12639 15796 15799 28
12640 15796 15800 28
12641 15801 15802 28
12642 15801 15803 28
12643 15801 15804 28
12644 15801 15805 28
12645 15806 15807 28
12646 15806 15808 28
12647 15806 15809 28
12648 15806 15810 28
12649 15811 15812 28
12650 15811 15813 28
12651 15811 15814 28
12652 15811 15815 28
12653 15816 15817 28
12654 15816 15818 28
12655 15816 15819 28
12656 15816 15820 28
12657 15821 15822 28
12658 15821 15823 28
12659 15821 15824 28
12660 15821 15825 28
12661 15826 15827 28
12662 15826 15828 28
12663 15826 15829 28
12664 15826 15830 28
12665 15831 15832 28
12666 15831 15833 28
12667 15831 15834 28
12668 15831 15835 28
12669 15836 15837 28
12670 15836 15838 28
12671 15836 15839 28
12672 15836 15840 28
12673 15841 15842 28
12674 15841 15843 28
12675 15841 15844 28
12676 15841 15845 28
12677 15846 15847 28
12678 15846 15848 28
12679 15846 15849 28
12680 15846 15850 28
12681 15851 15852 28
12682 15851 15853 28
12683 15851 15854 28
12684 15851 15855 28
12685 15856 15857 28
12686 15856 15858 28
12687 15856 15859 28
12688 15856 15860 28
12689 15861 15862 28
12690 15861 15863 28
12691 15861 15864 28
12692 15861 15865 28
12693 15866 15867 28
12694 15866 15868 28
12695 15866 15869 28
12696 15866 15870 28
12697 15871 15872 28
12698 15871 15873 28
12699 15871 15874 28
12700 15871 15875 28
12701 15876 15877 28
12702 15876 15878 28
12703 15876 15879 28
12704 15876 15880 28
12705 15881 15882 28
12706 15881 15883 28
12707 15881 15884 28
12708 15881 15885 28
12709 15886 15887 28
12710 15886 15888 28
12711 15886 15889 28
12712 15886 15890 28
12713 15891 15892 28
12714 15891 15893 28
12715 15891 15894 28
12716 15891 15895 28
12717 15896 15897 28
12718 15896 15898 28
12719 15896 15899 28
12720 15896 15900 28
12721 15901 15902 28
12722 15901 15903 28
12723 15901 15904 28
12724 15901 15905 28
12725 15906 15907 28
12726 15906 15908 28
12727 15906 15909 28
12728 15906 15910 28
12729 15911 15912 28
12730 15911 15913 28
12731 15911 15914 28
12732 15911 15915 28
12733 15916 15917 28
12734 15916 15918 28
12735 15916 15919 28
12736 15916 15920 28
12737 15921 15922 28
12738 15921 15923 28
12739 15921 15924 28
12740 15921 15925 28
12741 15926 15927 28
12742 15926 15928 28
12743 15926 15929 28
12744 15926 15930 28
12745 15931 15932 28
12746 15931 15933 28
12747 15931 15934 28
12748 15931 15935 28
12749 15936 15937 28
12750 15936 15938 28
12751 15936 15939 28
12752 15936 15940 28
12753 15941 15942 28
12754 15941 15943 28
12755 15941 15944 28
12756 15941 15945 28
12757 15946 15947 28
12758 15946 15948 28
12759 15946 15949 28
12760 15946 15950 28
12761 15951 15952 28
12762 15951 15953 28
12763 15951 15954 28
12764 15951 15955 28
12765 15956 15957 28
12766 15956 15958 28
12767 15956 15959 28
12768 15956 15960 28
12769 15961 15962 28
12770 15961 15963 28
12771 15961 15964 28
12772 15961 15965 28
12773 15966 15967 28
12774 15966 15968 28
12775 15966 15969 28
12776 15966 15970 28
12777 15971 15972 28
12778 15971 15973 28
12779 15971 15974 28
12780 15971 15975 28
12781 15976 15977 28
12782 15976 15978 28
12783 15976 15979 28
12784 15976 15980 28
12785 15981 15982 28
12786 15981 15983 28
12787 15981 15984 28
12788 15981 15985 28
12789 15986 15987 28
12790 15986 15988 28
12791 15986 15989 28
12792 15986 15990 28
12793 15991 15992 28
12794 15991 15993 28
12795 15991 15994 28
12796 15991 15995 28
12797 15996 15997 28
12798 15996 15998 28
12799 15996 15999 28
12800 15996 16000 28
12801 16001 16002 28
12802 16001 16003 28
12803 16001 16004 28
12804 16001 16005 28
12805 16006 16007 28
12806 16006 16008 28
12807 16006 16009 28
12808 16006 16010 28
12809 16011 16012 28
12810 16011 16013 28
12811 16011 16014 28
12812 16011 16015 28
12813 16016 16017 28
12814 16016 16018 28
12815 16016 16019 28
12816 16016 16020 28
12817 16021 16022 28
12818 16021 16023 28
12819 16021 16024 28
12820 16021 16025 28
12821 16026 16027 28
12822 16026 16028 28
12823 16026 16029 28
12824 16026 16030 28
12825 16031 16032 28
12826 16031 16033 28
12827 16031 16034 28
12828 16031 16035 28
12829 16036 16037 28
12830 16036 16038 28
12831 16036 16039 28
12832 16036 16040 28
12833 16041 16042 28
12834 16041 16043 28
12835 16041 16044 28
12836 16041 16045 28
12837 16046 16047 28
12838 16046 16048 28
12839 16046 16049 28
12840 16046 16050 28
12841 16051 16052 28
12842 16051 16053 28
12843 16051 16054 28
12844 16051 16055 28
12845 16056 16057 28
12846 16056 16058 28
12847 16056 16059 28
12848 16056 16060 28
12849 16061 16062 28
12850 16061 16063 28
12851 16061 16064 28
12852 16061 16065 28
12853 16066 16067 28
12854 16066 16068 28
12855 16066 16069 28
12856 16066 16070 28
12857 16071 16072 28
12858 16071 16073 28
12859 16071 16074 28
12860 16071 16075 28
12861 16076 16077 28
12862 16076 16078 28
12863 16076 16079 28
12864 16076 16080 28
12865 16081 16082 28
12866 16081 16083 28
12867 16081 16084 28
12868 16081 16085 28
12869 16086 16087 28
12870 16086 16088 28
12871 16086 16089 28
12872 16086 16090 28
12873 16091 16092 28
12874 16091 16093 28
12875 16091 16094 28
12876 16091 16095 28
12877 16096 16097 28
12878 16096 16098 28
12879 16096 16099 28
12880 16096 16100 28
12881 16101 16102 28
12882 16101 16103 28
12883 16101 16104 28
12884 16101 16105 28
12885 16106 16107 28
12886 16106 16108 28
12887 16106 16109 28
12888 16106 16110 28
12889 16111 16112 28
12890 16111 16113 28
12891 16111 16114 28
12892 16111 16115 28
12893 16116 16117 28
12894 16116 16118 28
12895 16116 16119 28
12896 16116 16120 28
12897 16121 16122 28
12898 16121 16123 28
12899 16121 16124 28
12900 16121 16125 28
12901 16126 16127 28
12902 16126 16128 28
12903 16126 16129 28
12904 16126 16130 28
12905 16131 16132 28
12906 16131 16133 28
12907 16131 16134 28
12908 16131 16135 28
12909 16136 16137 28
12910 16136 16138 28
12911 16136 16139 28
12912 16136 16140 28
12913 16141 16142 28
12914 16141 16143 28
12915 16141 16144 28
12916 16141 16145 28
12917 16146 16147 28
12918 16146 16148 28
12919 16146 16149 28
12920 16146 16150 28
12921 16151 16152 28
12922 16151 16153 28
12923 16151 16154 28
12924 16151 16155 28
12925 16156 16157 28
12926 16156 16158 28
12927 16156 16159 28
12928 16156 16160 28
12929 16161 16162 28
12930 16161 16163 28
12931 16161 16164 28
12932 16161 16165 28
12933 16166 16167 28
12934 16166 16168 28
12935 16166 16169 28
12936 16166 16170 28
12937 16171 16172 28
12938 16171 16173 28
12939 16171 16174 28
12940 16171 16175 28
12941 16176 16177 28
12942 16176 16178 28
12943 16176 16179 28
12944 16176 16180 28
12945 16181 16182 28
12946 16181 16183 28
12947 16181 16184 28
12948 16181 16185 28
12949 16186 16187 28
12950 16186 16188 28
12951 16186 16189 28
12952 16186 16190 28
12953 16191 16192 28
12954 16191 16193 28
12955 16191 16194 28
12956 16191 16195 28
12957 16196 16197 28
12958 16196 16198 28
12959 16196 16199 28
12960 16196 16200 28
12961 16201 16202 28
12962 16201 16203 28
12963 16201 16204 28
12964 16201 16205 28
12965 16206 16207 28
12966 16206 16208 28
12967 16206 16209 28
12968 16206 16210 28
12969 16211 16212 28
12970 16211 16213 28
12971 16211 16214 28
12972 16211 16215 28
12973 16216 16217 28
12974 16216 16218 28
12975 16216 16219 28
12976 16216 16220 28
12977 16221 16222 28
12978 16221 16223 28
12979 16221 16224 28
12980 16221 16225 28
12981 16226 16227 28
12982 16226 16228 28
12983 16226 16229 28
12984 16226 16230 28
12985 16231 16232 28
12986 16231 16233 28
12987 16231 16234 28
12988 16231 16235 28
12989 16236 16237 28
12990 16236 16238 28
12991 16236 16239 28
12992 16236 16240 28
12993 16241 16242 28
12994 16241 16243 28
12995 16241 16244 28
12996 16241 16245 28
12997 16246 16247 28
12998 16246 16248 28
12999 16246 16249 28
13000 16246 16250 28
13001 16251 16252 28
13002 16251 16253 28
13003 16251 16254 28
13004 16251 16255 28
13005 16256 16257 28
13006 16256 16258 28
13007 16256 16259 28
13008 16256 16260 28
13009 16261 16262 28
13010 16261 16263 28
13011 16261 16264 28
13012 16261 16265 28
13013 16266 16267 28
13014 16266 16268 28
13015 16266 16269 28
13016 16266 16270 28
13017 16271 16272 28
13018 16271 16273 28
13019 16271 16274 28
13020 16271 16275 28
13021 16276 16277 28
13022 16276 16278 28
13023 16276 16279 28
13024 16276 16280 28
13025 16281 16282 28
13026 16281 16283 28
13027 16281 16284 28
13028 16281 16285 28
13029 16286 16287 28
13030 16286 16288 28
13031 16286 16289 28
13032 16286 16290 28
13033 16291 16292 28
13034 16291 16293 28
13035 16291 16294 28
13036 16291 16295 28
13037 16296 16297 28
13038 16296 16298 28
13039 16296 16299 28
13040 16296 16300 28
13041 16301 16302 28
13042 16301 16303 28
13043 16301 16304 28
13044 16301 16305 28
13045 16306 16307 28
13046 16306 16308 28
13047 16306 16309 28
13048 16306 16310 28
13049 16311 16312 28
13050 16311 16313 28
13051 16311 16314 28
13052 16311 16315 28
13053 16316 16317 28
13054 16316 16318 28
13055 16316 16319 28
13056 16316 16320 28
13057 16321 16322 28
13058 16321 16323 28
13059 16321 16324 28
13060 16321 16325 28
13061 16326 16327 28
13062 16326 16328 28
13063 16326 16329 28
13064 16326 16330 28
13065 16331 16332 28
13066 16331 16333 28
13067 16331 16334 28
13068 16331 16335 28
13069 16336 16337 28
13070 16336 16338 28
13071 16336 16339 28
13072 16336 16340 28
13073 16341 16342 28
13074 16341 16343 28
13075 16341 16344 28
13076 16341 16345 28
13077 16346 16347 28
13078 16346 16348 28
13079 16346 16349 28
13080 16346 16350 28
13081 16351 16352 28
13082 16351 16353 28
13083 16351 16354 28
13084 16351 16355 28
13085 16356 16357 28
13086 16356 16358 28
13087 16356 16359 28
13088 16356 16360 28
13089 16361 16362 28
13090 16361 16363 28
13091 16361 16364 28
13092 16361 16365 28
13093 16366 16367 28
13094 16366 16368 28
13095 16366 16369 28
13096 16366 16370 28
13097 16371 16372 28
13098 16371 16373 28
13099 16371 16374 28
13100 16371 16375 28
13101 16376 16377 28
13102 16376 16378 28
13103 16376 16379 28
13104 16376 16380 28
13105 16381 16382 28
13106 16381 16383 28
13107 16381 16384 28
13108 16381 16385 28
13109 16386 16387 28
13110 16386 16388 28
13111 16386 16389 28
13112 16386 16390 28
13113 16391 16392 28
13114 16391 16393 28
13115 16391 16394 28
13116 16391 16395 28
13117 16396 16397 28
13118 16396 16398 28
13119 16396 16399 28
13120 16396 16400 28
13121 16401 16402 28
13122 16401 16403 28
13123 16401 16404 28
13124 16401 16405 28
13125 16406 16407 28
13126 16406 16408 28
13127 16406 16409 28
13128 16406 16410 28
13129 16411 16412 28
13130 16411 16413 28
13131 16411 16414 28
13132 16411 16415 28
13133 16416 16417 28
13134 16416 16418 28
13135 16416 16419 28
13136 16416 16420 28
13137 16421 16422 28
13138 16421 16423 28
13139 16421 16424 28
13140 16421 16425 28
13141 16426 16427 28
13142 16426 16428 28
13143 16426 16429 28
13144 16426 16430 28
13145 16431 16432 28
13146 16431 16433 28
13147 16431 16434 28
13148 16431 16435 28
13149 16436 16437 28
13150 16436 16438 28
13151 16436 16439 28
13152 16436 16440 28
13153 16441 16442 28
13154 16441 16443 28
13155 16441 16444 28
13156 16441 16445 28
13157 16446 16447 28
13158 16446 16448 28
13159 16446 16449 28
13160 16446 16450 28
13161 16451 16452 28
13162 16451 16453 28
13163 16451 16454 28
13164 16451 16455 28
13165 16456 16457 28
13166 16456 16458 28
13167 16456 16459 28
13168 16456 16460 28
13169 16461 16462 28
13170 16461 16463 28
13171 16461 16464 28
13172 16461 16465 28
13173 16466 16467 28
13174 16466 16468 28
13175 16466 16469 28
13176 16466 16470 28
13177 16471 16472 28
13178 16471 16473 28
13179 16471 16474 28
13180 16471 16475 28
13181 16476 16477 28
13182 16476 16478 28
13183 16476 16479 28
13184 16476 16480 28
13185 16481 16482 28
13186 16481 16483 28
13187 16481 16484 28
13188 16481 16485 28
13189 16486 16487 28
13190 16486 16488 28
13191 16486 16489 28
13192 16486 16490 28
13193 16491 16492 28
13194 16491 16493 28
13195 16491 16494 28
13196 16491 16495 28
13197 16496 16497 28
13198 16496 16498 28
13199 16496 16499 28
13200 16496 16500 28
13201 16501 16502 28
13202 16501 16503 28
13203 16501 16504 28
13204 16501 16505 28
13205 16506 16507 28
13206 16506 16508 28
13207 16506 16509 28
13208 16506 16510 28
13209 16511 16512 28
13210 16511 16513 28
13211 16511 16514 28
13212 16511 16515 28
13213 16516 16517 28
13214 16516 16518 28
13215 16516 16519 28
13216 16516 16520 28
13217 16521 16522 28
13218 16521 16523 28
13219 16521 16524 28
13220 16521 16525 28
13221 16526 16527 28
13222 16526 16528 28
13223 16526 16529 28
13224 16526 16530 28
13225 16531 16532 28
13226 16531 16533 28
13227 16531 16534 28
13228 16531 16535 28
13229 16536 16537 28
13230 16536 16538 28
13231 16536 16539 28
13232 16536 16540 28
13233 16541 16542 28
13234 16541 16543 28
13235 16541 16544 28
13236 16541 16545 28
13237 16546 16547 28
13238 16546 16548 28
13239 16546 16549 28
13240 16546 16550 28
13241 16551 16552 28
13242 16551 16553 28
13243 16551 16554 28
13244 16551 16555 28
13245 16556 16557 28
13246 16556 16558 28
13247 16556 16559 28
13248 16556 16560 28
13249 16561 16562 28
13250 16561 16563 28
13251 16561 16564 28
13252 16561 16565 28
13253 16566 16567 28
13254 16566 16568 28
13255 16566 16569 28
13256 16566 16570 28
13257 16571 16572 28
13258 16571 16573 28
13259 16571 16574 28
13260 16571 16575 28
13261 16576 16577 28
13262 16576 16578 28
13263 16576 16579 28
13264 16576 16580 28
13265 16581 16582 28
13266 16581 16583 28
13267 16581 16584 28
13268 16581 16585 28
13269 16586 16587 28
13270 16586 16588 28
13271 16586 16589 28
13272 16586 16590 28
13273 16591 16592 28
13274 16591 16593 28
13275 16591 16594 28
13276 16591 16595 28
13277 16596 16597 28
13278 16596 16598 28
13279 16596 16599 28
13280 16596 16600 28
13281 16601 16602 28
13282 16601 16603 28
13283 16601 16604 28
13284 16601 16605 28
13285 16606 16607 28
13286 16606 16608 28
13287 16606 16609 28
13288 16606 16610 28
13289 16611 16612 28
13290 16611 16613 28
13291 16611 16614 28
13292 16611 16615 28
13293 16616 16617 28
13294 16616 16618 28
13295 16616 16619 28
13296 16616 16620 28
13297 16621 16622 28
13298 16621 16623 28
13299 16621 16624 28
13300 16621 16625 28
13301 16626 16627 28
13302 16626 16628 28
13303 16626 16629 28
13304 16626 16630 28
13305 16631 16632 28
13306 16631 16633 28
13307 16631 16634 28
13308 16631 16635 28
13309 16636 16637 28
13310 16636 16638 28
13311 16636 16639 28
13312 16636 16640 28
13313 16641 16642 28
13314 16641 16643 28
13315 16641 16644 28
13316 16641 16645 28
13317 16646 16647 28
13318 16646 16648 28
13319 16646 16649 28
13320 16646 16650 28
13321 16651 16652 28
13322 16651 16653 28
13323 16651 16654 28
13324 16651 16655 28
13325 16656 16657 28
13326 16656 16658 28
13327 16656 16659 28
13328 16656 16660 28
13329 16661 16662 28
13330 16661 16663 28
13331 16661 16664 28
13332 16661 16665 28
13333 16666 16667 28
13334 16666 16668 28
13335 16666 16669 28
13336 16666 16670 28
13337 16671 16672 28
13338 16671 16673 28
13339 16671 16674 28
13340 16671 16675 28
13341 16676 16677 28
13342 16676 16678 28
13343 16676 16679 28
13344 16676 16680 28
13345 16681 16682 28
13346 16681 16683 28
13347 16681 16684 28
13348 16681 16685 28
13349 16686 16687 28
13350 16686 16688 28
13351 16686 16689 28
13352 16686 16690 28
13353 16691 16692 28
13354 16691 16693 28
13355 16691 16694 28
13356 16691 16695 28
13357 16696 16697 28
13358 16696 16698 28
13359 16696 16699 28
13360 16696 16700 28
13361 16701 16702 28
13362 16701 16703 28
13363 16701 16704 28
13364 16701 16705 28
13365 16706 16707 28
13366 16706 16708 28
13367 16706 16709 28
13368 16706 16710 28
13369 16711 16712 28
13370 16711 16713 28
13371 16711 16714 28
13372 16711 16715 28
13373 16716 16717 28
13374 16716 16718 28
13375 16716 16719 28
13376 16716 16720 28
13377 16721 16722 28
13378 16721 16723 28
13379 16721 16724 28
13380 16721 16725 28
13381 16726 16727 28
13382 16726 16728 28
13383 16726 16729 28
13384 16726 16730 28
13385 16731 16732 28
13386 16731 16733 28
13387 16731 16734 28
13388 16731 16735 28
13389 16736 16737 28
13390 16736 16738 28
13391 16736 16739 28
13392 16736 16740 28
13393 16741 16742 28
13394 16741 16743 28
13395 16741 16744 28
13396 16741 16745 28
13397 16746 16747 28
13398 16746 16748 28
13399 16746 16749 28
13400 16746 16750 28
13401 16751 16752 28
13402 16751 16753 28
13403 16751 16754 28
13404 16751 16755 28
13405 16756 16757 28
13406 16756 16758 28
13407 16756 16759 28
13408 16756 16760 28
13409 16761 16762 28
13410 16761 16763 28
13411 16761 16764 28
13412 16761 16765 28
13413 16766 16767 28
13414 16766 16768 28
13415 16766 16769 28
13416 16766 16770 28
13417 16771 16772 28
13418 16771 16773 28
13419 16771 16774 28
13420 16771 16775 28
13421 16776 16777 28
13422 16776 16778 28
13423 16776 16779 28
13424 16776 16780 28
13425 16781 16782 28
13426 16781 16783 28
13427 16781 16784 28
13428 16781 16785 28
13429 16786 16787 28
13430 16786 16788 28
13431 16786 16789 28
13432 16786 16790 28
13433 16791 16792 28
13434 16791 16793 28
13435 16791 16794 28
13436 16791 16795 28
13437 16796 16797 28
13438 16796 16798 28
13439 16796 16799 28
13440 16796 16800 28
13441 16801 16802 28
13442 16801 16803 28
13443 16801 16804 28
13444 16801 16805 28
13445 16806 16807 28
13446 16806 16808 28
13447 16806 16809 28
13448 16806 16810 28
13449 16811 16812 28
13450 16811 16813 28
13451 16811 16814 28
13452 16811 16815 28
13453 16816 16817 28
13454 16816 16818 28
13455 16816 16819 28
13456 16816 16820 28
13457 16821 16822 28
13458 16821 16823 28
13459 16821 16824 28
13460 16821 16825 28
13461 16826 16827 28
13462 16826 16828 28
13463 16826 16829 28
13464 16826 16830 28
13465 16831 16832 28
13466 16831 16833 28
13467 16831 16834 28
13468 16831 16835 28
13469 16836 16837 28
13470 16836 16838 28
13471 16836 16839 28
13472 16836 16840 28
13473 16841 16842 28
13474 16841 16843 28
13475 16841 16844 28
13476 16841 16845 28
13477 16846 16847 28
13478 16846 16848 28
13479 16846 16849 28
13480 16846 16850 28
13481 16851 16852 28
13482 16851 16853 28
13483 16851 16854 28
13484 16851 16855 28
13485 16856 16857 28
13486 16856 16858 28
13487 16856 16859 28
13488 16856 16860 28
13489 16861 16862 28
13490 16861 16863 28
13491 16861 16864 28
13492 16861 16865 28
13493 16866 16867 28
13494 16866 16868 28
13495 16866 16869 28
13496 16866 16870 28
13497 16871 16872 28
13498 16871 16873 28
13499 16871 16874 28
13500 16871 16875 28
13501 16876 16877 28
13502 16876 16878 28
13503 16876 16879 28
13504 16876 16880 28
13505 16881 16882 28
13506 16881 16883 28
13507 16881 16884 28
13508 16881 16885 28
13509 16886 16887 28
13510 16886 16888 28
13511 16886 16889 28
13512 16886 16890 28
13513 16891 16892 28
13514 16891 16893 28
13515 16891 16894 28
13516 16891 16895 28
13517 16896 16897 28
13518 16896 16898 28
13519 16896 16899 28
13520 16896 16900 28
13521 16901 16902 28
13522 16901 16903 28
13523 16901 16904 28
13524 16901 16905 28
13525 16906 16907 28
13526 16906 16908 28
13527 16906 16909 28
13528 16906 16910 28
13529 16911 16912 28
13530 16911 16913 28
13531 16911 16914 28
13532 16911 16915 28
13533 16916 16917 28
13534 16916 16918 28
13535 16916 16919 28
13536 16916 16920 28
13537 16921 16922 28
13538 16921 16923 28
13539 16921 16924 28
13540 16921 16925 28
13541 16926 16927 28
13542 16926 16928 28
13543 16926 16929 28
13544 16926 16930 28
13545 16931 16932 28
13546 16931 16933 28
13547 16931 16934 28
13548 16931 16935 28
13549 16936 16937 28
13550 16936 16938 28
13551 16936 16939 28
13552 16936 16940 28
13553 16941 16942 28
13554 16941 16943 28
13555 16941 16944 28
13556 16941 16945 28
13557 16946 16947 28
13558 16946 16948 28
13559 16946 16949 28
13560 16946 16950 28
13561 16951 16952 28
13562 16951 16953 28
13563 16951 16954 28
13564 16951 16955 28
13565 16956 16957 28
13566 16956 16958 28
13567 16956 16959 28
13568 16956 16960 28
13569 16961 16962 28
13570 16961 16963 28
13571 16961 16964 28
13572 16961 16965 28
13573 16966 16967 28
13574 16966 16968 28
13575 16966 16969 28
13576 16966 16970 28
13577 16971 16972 28
13578 16971 16973 28
13579 16971 16974 28
13580 16971 16975 28
13581 16976 16977 28
13582 16976 16978 28
13583 16976 16979 28
13584 16976 16980 28
13585 16981 16982 28
13586 16981 16983 28
13587 16981 16984 28
13588 16981 16985 28
13589 16986 16987 28
13590 16986 16988 28
13591 16986 16989 28
13592 16986 16990 28
13593 16991 16992 28
13594 16991 16993 28
13595 16991 16994 28
13596 16991 16995 28
13597 16996 16997 28
13598 16996 16998 28
13599 16996 16999 28
13600 16996 17000 28
13601 17001 17002 28
13602 17001 17003 28
13603 17001 17004 28
13604 17001 17005 28
13605 17006 17007 28
13606 17006 17008 28
13607 17006 17009 28
13608 17006 17010 28
13609 17011 17012 28
13610 17011 17013 28
13611 17011 17014 28
13612 17011 17015 28
13613 17016 17017 28
13614 17016 17018 28
13615 17016 17019 28
13616 17016 17020 28
13617 17021 17022 28
13618 17021 17023 28
13619 17021 17024 28
13620 17021 17025 28
13621 17026 17027 28
13622 17026 17028 28
13623 17026 17029 28
13624 17026 17030 28
13625 17031 17032 28
13626 17031 17033 28
13627 17031 17034 28
13628 17031 17035 28
13629 17036 17037 28
13630 17036 17038 28
13631 17036 17039 28
13632 17036 17040 28
13633 17041 17042 28
13634 17041 17043 28
13635 17041 17044 28
13636 17041 17045 28
13637 17046 17047 28
13638 17046 17048 28
13639 17046 17049 28
13640 17046 17050 28
13641 17051 17052 28
13642 17051 17053 28
13643 17051 17054 28
13644 17051 17055 28
13645 17056 17057 28
13646 17056 17058 28
13647 17056 17059 28
13648 17056 17060 28
13649 17061 17062 28
13650 17061 17063 28
13651 17061 17064 28
13652 17061 17065 28
13653 17066 17067 28
13654 17066 17068 28
13655 17066 17069 28
13656 17066 17070 28
13657 17071 17072 28
13658 17071 17073 28
13659 17071 17074 28
13660 17071 17075 28
13661 17076 17077 28
13662 17076 17078 28
13663 17076 17079 28
13664 17076 17080 28
13665 17081 17082 28
13666 17081 17083 28
13667 17081 17084 28
13668 17081 17085 28
13669 17086 17087 28
13670 17086 17088 28
13671 17086 17089 28
13672 17086 17090 28
13673 17091 17092 28
13674 17091 17093 28
13675 17091 17094 28
13676 17091 17095 28
13677 17096 17097 28
13678 17096 17098 28
13679 17096 17099 28
13680 17096 17100 28
13681 17101 17102 28
13682 17101 17103 28
13683 17101 17104 28
13684 17101 17105 28
13685 17106 17107 28
13686 17106 17108 28
13687 17106 17109 28
13688 17106 17110 28
13689 17111 17112 28
13690 17111 17113 28
13691 17111 17114 28
13692 17111 17115 28
13693 17116 17117 28
13694 17116 17118 28
13695 17116 17119 28
13696 17116 17120 28
13697 17121 17122 28
13698 17121 17123 28
13699 17121 17124 28
13700 17121 17125 28
13701 17126 17127 28
13702 17126 17128 28
13703 17126 17129 28
13704 17126 17130 28
13705 17131 17132 28
13706 17131 17133 28
13707 17131 17134 28
13708 17131 17135 28
13709 17136 17137 28
13710 17136 17138 28
13711 17136 17139 28
13712 17136 17140 28
13713 17141 17142 28
13714 17141 17143 28
13715 17141 17144 28
13716 17141 17145 28
13717 17146 17147 28
13718 17146 17148 28
13719 17146 17149 28
13720 17146 17150 28
13721 17151 17152 28
13722 17151 17153 28
13723 17151 17154 28
13724 17151 17155 28
13725 17156 17157 28
13726 17156 17158 28
13727 17156 17159 28
13728 17156 17160 28
13729 17161 17162 28
13730 17161 17163 28
13731 17161 17164 28
13732 17161 17165 28
13733 17166 17167 28
13734 17166 17168 28
13735 17166 17169 28
13736 17166 17170 28
13737 17171 17172 28
13738 17171 17173 28
13739 17171 17174 28
13740 17171 17175 28
13741 17176 17177 28
13742 17176 17178 28
13743 17176 17179 28
13744 17176 17180 28
13745 17181 17182 28
13746 17181 17183 28
13747 17181 17184 28
13748 17181 17185 28
13749 17186 17187 28
13750 17186 17188 28
13751 17186 17189 28
13752 17186 17190 28
13753 17191 17192 28
13754 17191 17193 28
13755 17191 17194 28
13756 17191 17195 28
13757 17196 17197 28
13758 17196 17198 28
13759 17196 17199 28
13760 17196 17200 28
13761 17201 17202 28
13762 17201 17203 28
13763 17201 17204 28
13764 17201 17205 28
13765 17206 17207 28
13766 17206 17208 28
13767 17206 17209 28
13768 17206 17210 28
13769 17211 17212 28
13770 17211 17213 28
13771 17211 17214 28
13772 17211 17215 28
13773 17216 17217 28
13774 17216 17218 28
13775 17216 17219 28
13776 17216 17220 28
13777 17221 17222 28
13778 17221 17223 28
13779 17221 17224 28
13780 17221 17225 28
13781 17226 17227 28
13782 17226 17228 28
13783 17226 17229 28
13784 17226 17230 28
13785 17231 17232 28
13786 17231 17233 28
13787 17231 17234 28
13788 17231 17235 28
13789 17236 17237 28
13790 17236 17238 28
13791 17236 17239 28
13792 17236 17240 28
13793 17241 17242 28
13794 17241 17243 28
13795 17241 17244 28
13796 17241 17245 28
13797 17246 17247 28
13798 17246 17248 28
13799 17246 17249 28
13800 17246 17250 28
13801 17251 17252 28
13802 17251 17253 28
13803 17251 17254 28
13804 17251 17255 28
13805 17256 17257 28
13806 17256 17258 28
13807 17256 17259 28
13808 17256 17260 28
13809 17261 17262 28
13810 17261 17263 28
13811 17261 17264 28
13812 17261 17265 28
13813 17266 17267 28
13814 17266 17268 28
13815 17266 17269 28
13816 17266 17270 28
13817 17271 17272 28
13818 17271 17273 28
13819 17271 17274 28
13820 17271 17275 28
13821 17276 17277 28
13822 17276 17278 28
13823 17276 17279 28
13824 17276 17280 28
13825 17281 17282 28
13826 17281 17283 28
13827 17281 17284 28
13828 17281 17285 28
13829 17286 17287 28
13830 17286 17288 28
13831 17286 17289 28
13832 17286 17290 28
13833 17291 17292 28
13834 17291 17293 28
13835 17291 17294 28
13836 17291 17295 28
13837 17296 17297 28
13838 17296 17298 28
13839 17296 17299 28
13840 17296 17300 28
13841 17301 17302 28
13842 17301 17303 28
13843 17301 17304 28
13844 17301 17305 28
13845 17306 17307 28
13846 17306 17308 28
13847 17306 17309 28
13848 17306 17310 28
13849 17311 17312 28
13850 17311 17313 28
13851 17311 17314 28
13852 17311 17315 28
13853 17316 17317 28
13854 17316 17318 28
13855 17316 17319 28
13856 17316 17320 28
13857 17321 17322 28
13858 17321 17323 28
13859 17321 17324 28
13860 17321 17325 28
13861 17326 17327 28
13862 17326 17328 28
13863 17326 17329 28
13864 17326 17330 28
13865 17331 17332 28
13866 17331 17333 28
13867 17331 17334 28
13868 17331 17335 28
13869 17336 17337 28
13870 17336 17338 28
13871 17336 17339 28
13872 17336 17340 28
13873 17341 17342 28
13874 17341 17343 28
13875 17341 17344 28
13876 17341 17345 28
13877 17346 17347 28
13878 17346 17348 28
13879 17346 17349 28
13880 17346 17350 28
13881 17351 17352 28
13882 17351 17353 28
13883 17351 17354 28
13884 17351 17355 28
13885 17356 17357 28
13886 17356 17358 28
13887 17356 17359 28
13888 17356 17360 28
13889 17361 17362 28
13890 17361 17363 28
13891 17361 17364 28
13892 17361 17365 28
13893 17366 17367 28
13894 17366 17368 28
13895 17366 17369 28
13896 17366 17370 28
13897 17371 17372 28
13898 17371 17373 28
13899 17371 17374 28
13900 17371 17375 28
13901 17376 17377 28
13902 17376 17378 28
13903 17376 17379 28
13904 17376 17380 28
13905 17381 17382 28
13906 17381 17383 28
13907 17381 17384 28
13908 17381 17385 28
13909 17386 17387 28
13910 17386 17388 28
13911 17386 17389 28
13912 17386 17390 28
13913 17391 17392 28
13914 17391 17393 28
13915 17391 17394 28
13916 17391 17395 28
13917 17396 17397 28
13918 17396 17398 28
13919 17396 17399 28
13920 17396 17400 28
13921 17401 17402 28
13922 17401 17403 28
13923 17401 17404 28
13924 17401 17405 28
13925 17406 17407 28
13926 17406 17408 28
13927 17406 17409 28
13928 17406 17410 28
13929 17411 17412 28
13930 17411 17413 28
13931 17411 17414 28
13932 17411 17415 28
13933 17416 17417 28
13934 17416 17418 28
13935 17416 17419 28
13936 17416 17420 28
13937 17421 17422 28
13938 17421 17423 28
13939 17421 17424 28
13940 17421 17425 28
13941 17426 17427 28
13942 17426 17428 28
13943 17426 17429 28
13944 17426 17430 28
13945 17431 17432 28
13946 17431 17433 28
13947 17431 17434 28
13948 17431 17435 28
13949 17436 17437 28
13950 17436 17438 28
13951 17436 17439 28
13952 17436 17440 28
13953 17441 17442 28
13954 17441 17443 28
13955 17441 17444 28
13956 17441 17445 28
13957 17446 17447 28
13958 17446 17448 28
13959 17446 17449 28
13960 17446 17450 28
13961 17451 17452 28
13962 17451 17453 28
13963 17451 17454 28
13964 17451 17455 28
13965 17456 17457 28
13966 17456 17458 28
13967 17456 17459 28
13968 17456 17460 28
13969 17461 17462 28
13970 17461 17463 28
13971 17461 17464 28
13972 17461 17465 28
13973 17466 17467 28
13974 17466 17468 28
13975 17466 17469 28
13976 17466 17470 28
13977 17471 17472 28
13978 17471 17473 28
13979 17471 17474 28
13980 17471 17475 28
13981 17476 17477 28
13982 17476 17478 28
13983 17476 17479 28
13984 17476 17480 28
13985 17481 17482 28
13986 17481 17483 28
13987 17481 17484 28
13988 17481 17485 28
13989 17486 17487 28
13990 17486 17488 28
13991 17486 17489 28
13992 17486 17490 28
13993 17491 17492 28
13994 17491 17493 28
13995 17491 17494 28
13996 17491 17495 28
13997 17496 17497 28
13998 17496 17498 28
13999 17496 17499 28
14000 17496 17500 28
14001 17501 17502 28
14002 17501 17503 28
14003 17501 17504 28
14004 17501 17505 28
14005 17506 17507 28
14006 17506 17508 28
14007 17506 17509 28
14008 17506 17510 28
14009 17511 17512 28
14010 17511 17513 28
14011 17511 17514 28
14012 17511 17515 28
14013 17516 17517 28
14014 17516 17518 28
14015 17516 17519 28
14016 17516 17520 28
14017 17521 17522 28
14018 17521 17523 28
14019 17521 17524 28
14020 17521 17525 28
14021 17526 17527 28
14022 17526 17528 28
14023 17526 17529 28
14024 17526 17530 28
14025 17531 17532 28
14026 17531 17533 28
14027 17531 17534 28
14028 17531 17535 28
14029 17536 17537 28
14030 17536 17538 28
14031 17536 17539 28
14032 17536 17540 28
14033 17541 17542 28
14034 17541 17543 28
14035 17541 17544 28
14036 17541 17545 28
14037 17546 17547 28
14038 17546 17548 28
14039 17546 17549 28
14040 17546 17550 28
14041 17551 17552 28
14042 17551 17553 28
14043 17551 17554 28
14044 17551 17555 28
14045 17556 17557 28
14046 17556 17558 28
14047 17556 17559 28
14048 17556 17560 28
14049 17561 17562 28
14050 17561 17563 28
14051 17561 17564 28
14052 17561 17565 28
14053 17566 17567 28
14054 17566 17568 28
14055 17566 17569 28
14056 17566 17570 28
14057 17571 17572 28
14058 17571 17573 28
14059 17571 17574 28
14060 17571 17575 28
14061 17576 17577 28
14062 17576 17578 28
14063 17576 17579 28
14064 17576 17580 28
14065 17581 17582 28
14066 17581 17583 28
14067 17581 17584 28
14068 17581 17585 28
14069 17586 17587 28
14070 17586 17588 28
14071 17586 17589 28
14072 17586 17590 28
14073 17591 17592 28
14074 17591 17593 28
14075 17591 17594 28
14076 17591 17595 28
14077 17596 17597 28
14078 17596 17598 28
14079 17596 17599 28
14080 17596 17600 28
14081 17601 17602 28
14082 17601 17603 28
14083 17601 17604 28
14084 17601 17605 28
14085 17606 17607 28
14086 17606 17608 28
14087 17606 17609 28
14088 17606 17610 28
14089 17611 17612 28
14090 17611 17613 28
14091 17611 17614 28
14092 17611 17615 28
14093 17616 17617 28
14094 17616 17618 28
14095 17616 17619 28
14096 17616 17620 28
14097 17621 17622 28
14098 17621 17623 28
14099 17621 17624 28
14100 17621 17625 28
14101 17626 17627 28
14102 17626 17628 28
14103 17626 17629 28
14104 17626 17630 28
14105 17631 17632 28
14106 17631 17633 28
14107 17631 17634 28
14108 17631 17635 28
14109 17636 17637 28
14110 17636 17638 28
14111 17636 17639 28
14112 17636 17640 28
14113 17641 17642 28
14114 17641 17643 28
14115 17641 17644 28
14116 17641 17645 28
14117 17646 17647 28
14118 17646 17648 28
14119 17646 17649 28
14120 17646 17650 28
14121 17651 17652 28
14122 17651 17653 28
14123 17651 17654 28
14124 17651 17655 28
14125 17656 17657 28
14126 17656 17658 28
14127 17656 17659 28
14128 17656 17660 28
14129 17661 17662 28
14130 17661 17663 28
14131 17661 17664 28
14132 17661 17665 28
14133 17666 17667 28
14134 17666 17668 28
14135 17666 17669 28
14136 17666 17670 28
14137 17671 17672 28
14138 17671 17673 28
14139 17671 17674 28
14140 17671 17675 28
14141 17676 17677 28
14142 17676 17678 28
14143 17676 17679 28
14144 17676 17680 28
14145 17681 17682 28
14146 17681 17683 28
14147 17681 17684 28
14148 17681 17685 28
14149 17686 17687 28
14150 17686 17688 28
14151 17686 17689 28
14152 17686 17690 28
14153 17691 17692 28
14154 17691 17693 28
14155 17691 17694 28
14156 17691 17695 28
14157 17696 17697 28
14158 17696 17698 28
14159 17696 17699 28
14160 17696 17700 28
14161 17701 17702 28
14162 17701 17703 28
14163 17701 17704 28
14164 17701 17705 28
14165 17706 17707 28
14166 17706 17708 28
14167 17706 17709 28
14168 17706 17710 28
14169 17711 17712 28
14170 17711 17713 28
14171 17711 17714 28
14172 17711 17715 28
14173 17716 17717 28
14174 17716 17718 28
14175 17716 17719 28
14176 17716 17720 28
14177 17721 17722 28
14178 17721 17723 28
14179 17721 17724 28
14180 17721 17725 28
14181 17726 17727 28
14182 17726 17728 28
14183 17726 17729 28
14184 17726 17730 28
14185 17731 17732 28
14186 17731 17733 28
14187 17731 17734 28
14188 17731 17735 28
14189 17736 17737 28
14190 17736 17738 28
14191 17736 17739 28
14192 17736 17740 28
14193 17741 17742 28
14194 17741 17743 28
14195 17741 17744 28
14196 17741 17745 28
14197 17746 17747 28
14198 17746 17748 28
14199 17746 17749 28
14200 17746 17750 28
14201 17751 17752 28
14202 17751 17753 28
14203 17751 17754 28
14204 17751 17755 28
14205 17756 17757 28
14206 17756 17758 28
14207 17756 17759 28
14208 17756 17760 28
14209 17761 17762 28
14210 17761 17763 28
14211 17761 17764 28
14212 17761 17765 28
14213 17766 17767 28
14214 17766 17768 28
14215 17766 17769 28
14216 17766 17770 28
14217 17771 17772 28
14218 17771 17773 28
14219 17771 17774 28
14220 17771 17775 28
14221 17776 17777 28
14222 17776 17778 28
14223 17776 17779 28
14224 17776 17780 28
14225 17781 17782 28
14226 17781 17783 28
14227 17781 17784 28
14228 17781 17785 28
14229 17786 17787 28
14230 17786 17788 28
14231 17786 17789 28
14232 17786 17790 28
14233 17791 17792 28
14234 17791 17793 28
14235 17791 17794 28
14236 17791 17795 28
14237 17796 17797 28
14238 17796 17798 28
14239 17796 17799 28
14240 17796 17800 28
14241 17801 17802 28
14242 17801 17803 28
14243 17801 17804 28
14244 17801 17805 28
14245 17806 17807 28
14246 17806 17808 28
14247 17806 17809 28
14248 17806 17810 28
14249 17811 17812 28
14250 17811 17813 28
14251 17811 17814 28
14252 17811 17815 28
14253 17816 17817 28
14254 17816 17818 28
14255 17816 17819 28
14256 17816 17820 28
14257 17821 17822 28
14258 17821 17823 28
14259 17821 17824 28
14260 17821 17825 28
14261 17826 17827 28
14262 17826 17828 28
14263 17826 17829 28
14264 17826 17830 28
14265 17831 17832 28
14266 17831 17833 28
14267 17831 17834 28
14268 17831 17835 28
14269 17836 17837 28
14270 17836 17838 28
14271 17836 17839 28
14272 17836 17840 28
14273 17841 17842 28
14274 17841 17843 28
14275 17841 17844 28
14276 17841 17845 28
14277 17846 17847 28
14278 17846 17848 28
14279 17846 17849 28
14280 17846 17850 28
14281 17851 17852 28
14282 17851 17853 28
14283 17851 17854 28
14284 17851 17855 28
14285 17856 17857 28
14286 17856 17858 28
14287 17856 17859 28
14288 17856 17860 28
14289 17861 17862 28
14290 17861 17863 28
14291 17861 17864 28
14292 17861 17865 28
14293 17866 17867 28
14294 17866 17868 28
14295 17866 17869 28
14296 17866 17870 28
14297 17871 17872 28
14298 17871 17873 28
14299 17871 17874 28
14300 17871 17875 28
14301 17876 17877 28
14302 17876 17878 28
14303 17876 17879 28
14304 17876 17880 28
14305 17881 17882 28
14306 17881 17883 28
14307 17881 17884 28
14308 17881 17885 28
14309 17886 17887 28
14310 17886 17888 28
14311 17886 17889 28
14312 17886 17890 28
14313 17891 17892 28
14314 17891 17893 28
14315 17891 17894 28
14316 17891 17895 28
14317 17896 17897 28
14318 17896 17898 28
14319 17896 17899 28
14320 17896 17900 28
14321 17901 17902 28
14322 17901 17903 28
14323 17901 17904 28
14324 17901 17905 28
14325 17906 17907 28
14326 17906 17908 28
14327 17906 17909 28
14328 17906 17910 28
14329 17911 17912 28
14330 17911 17913 28
14331 17911 17914 28
14332 17911 17915 28
14333 17916 17917 28
14334 17916 17918 28
14335 17916 17919 28
14336 17916 17920 28
14337 17921 17922 28
14338 17921 17923 28
14339 17921 17924 28
14340 17921 17925 28
14341 17926 17927 28
14342 17926 17928 28
14343 17926 17929 28
14344 17926 17930 28
14345 17931 17932 28
14346 17931 17933 28
14347 17931 17934 28
14348 17931 17935 28
14349 17936 17937 28
14350 17936 17938 28
14351 17936 17939 28
14352 17936 17940 28
14353 17941 17942 28
14354 17941 17943 28
14355 17941 17944 28
14356 17941 17945 28
14357 17946 17947 28
14358 17946 17948 28
14359 17946 17949 28
14360 17946 17950 28
14361 17951 17952 28
14362 17951 17953 28
14363 17951 17954 28
14364 17951 17955 28
14365 17956 17957 28
14366 17956 17958 28
14367 17956 17959 28
14368 17956 17960 28
14369 17961 17962 28
14370 17961 17963 28
14371 17961 17964 28
14372 17961 17965 28
14373 17966 17967 28
14374 17966 17968 28
14375 17966 17969 28
14376 17966 17970 28
14377 17971 17972 28
14378 17971 17973 28
14379 17971 17974 28
14380 17971 17975 28
14381 17976 17977 28
14382 17976 17978 28
14383 17976 17979 28
14384 17976 17980 28
14385 17981 17982 28
14386 17981 17983 28
14387 17981 17984 28
14388 17981 17985 28
14389 17986 17987 28
14390 17986 17988 28
14391 17986 17989 28
14392 17986 17990 28
14393 17991 17992 28
14394 17991 17993 28
14395 17991 17994 28
14396 17991 17995 28
14397 17996 17997 28
14398 17996 17998 28
14399 17996 17999 28
14400 17996 18000 28
14401 18001 18002 28
14402 18001 18003 28
14403 18001 18004 28
14404 18001 18005 28
14405 18006 18007 28
14406 18006 18008 28
14407 18006 18009 28
14408 18006 18010 28
14409 18011 18012 28
14410 18011 18013 28
14411 18011 18014 28
14412 18011 18015 28
14413 18016 18017 28
14414 18016 18018 28
14415 18016 18019 28
14416 18016 18020 28
14417 18021 18022 28
14418 18021 18023 28
14419 18021 18024 28
14420 18021 18025 28
14421 18026 18027 28
14422 18026 18028 28
14423 18026 18029 28
14424 18026 18030 28
14425 18031 18032 28
14426 18031 18033 28
14427 18031 18034 28
14428 18031 18035 28
14429 18036 18037 28
14430 18036 18038 28
14431 18036 18039 28
14432 18036 18040 28
14433 18041 18042 28
14434 18041 18043 28
14435 18041 18044 28
14436 18041 18045 28
14437 18046 18047 28
14438 18046 18048 28
14439 18046 18049 28
14440 18046 18050 28
14441 18051 18052 28
14442 18051 18053 28
14443 18051 18054 28
14444 18051 18055 28
14445 18056 18057 28
14446 18056 18058 28
14447 18056 18059 28
14448 18056 18060 28
14449 18061 18062 28
14450 18061 18063 28
14451 18061 18064 28
14452 18061 18065 28
14453 18066 18067 28
14454 18066 18068 28
14455 18066 18069 28
14456 18066 18070 28
14457 18071 18072 28
14458 18071 18073 28
14459 18071 18074 28
14460 18071 18075 28
14461 18076 18077 28
14462 18076 18078 28
14463 18076 18079 28
14464 18076 18080 28
14465 18081 18082 28
14466 18081 18083 28
14467 18081 18084 28
14468 18081 18085 28
14469 18086 18087 28
14470 18086 18088 28
14471 18086 18089 28
14472 18086 18090 28
14473 18091 18092 28
14474 18091 18093 28
14475 18091 18094 28
14476 18091 18095 28
14477 18096 18097 28
14478 18096 18098 28
14479 18096 18099 28
14480 18096 18100 28
14481 18101 18102 28
14482 18101 18103 28
14483 18101 18104 28
14484 18101 18105 28
14485 18106 18107 28
14486 18106 18108 28
14487 18106 18109 28
14488 18106 18110 28
14489 18111 18112 28
14490 18111 18113 28
14491 18111 18114 28
14492 18111 18115 28
14493 18116 18117 28
14494 18116 18118 28
14495 18116 18119 28
14496 18116 18120 28
14497 18121 18122 28
14498 18121 18123 28
14499 18121 18124 28
14500 18121 18125 28
14501 18126 18127 28
14502 18126 18128 28
14503 18126 18129 28
14504 18126 18130 28
14505 18131 18132 28
14506 18131 18133 28
14507 18131 18134 28
14508 18131 18135 28
14509 18136 18137 28
14510 18136 18138 28
14511 18136 18139 28
14512 18136 18140 28
14513 18141 18142 28
14514 18141 18143 28
14515 18141 18144 28
14516 18141 18145 28
14517 18146 18147 28
14518 18146 18148 28
14519 18146 18149 28
14520 18146 18150 28
14521 18151 18152 28
14522 18151 18153 28
14523 18151 18154 28
14524 18151 18155 28
14525 18156 18157 28
14526 18156 18158 28
14527 18156 18159 28
14528 18156 18160 28
14529 18161 18162 28
14530 18161 18163 28
14531 18161 18164 28
14532 18161 18165 28
14533 18166 18167 28
14534 18166 18168 28
14535 18166 18169 28
14536 18166 18170 28
14537 18171 18172 28
14538 18171 18173 28
14539 18171 18174 28
14540 18171 18175 28
14541 18176 18177 28
14542 18176 18178 28
14543 18176 18179 28
14544 18176 18180 28
14545 18181 18182 28
14546 18181 18183 28
14547 18181 18184 28
14548 18181 18185 28
14549 18186 18187 28
14550 18186 18188 28
14551 18186 18189 28
14552 18186 18190 28
14553 18191 18192 28
14554 18191 18193 28
14555 18191 18194 28
14556 18191 18195 28
14557 18196 18197 28
14558 18196 18198 28
14559 18196 18199 28
14560 18196 18200 28
14561 18201 18202 28
14562 18201 18203 28
14563 18201 18204 28
14564 18201 18205 28
14565 18206 18207 28
14566 18206 18208 28
14567 18206 18209 28
14568 18206 18210 28
14569 18211 18212 28
14570 18211 18213 28
14571 18211 18214 28
14572 18211 18215 28
14573 18216 18217 28
14574 18216 18218 28
14575 18216 18219 28
14576 18216 18220 28
14577 18221 18222 28
14578 18221 18223 28
14579 18221 18224 28
14580 18221 18225 28
14581 18226 18227 28
14582 18226 18228 28
14583 18226 18229 28
14584 18226 18230 28
14585 18231 18232 28
14586 18231 18233 28
14587 18231 18234 28
14588 18231 18235 28
14589 18236 18237 28
14590 18236 18238 28
14591 18236 18239 28
14592 18236 18240 28
14593 18241 18242 28
14594 18241 18243 28
14595 18241 18244 28
14596 18241 18245 28
14597 18246 18247 28
14598 18246 18248 28
14599 18246 18249 28
14600 18246 18250 28
14601 18251 18252 28
14602 18251 18253 28
14603 18251 18254 28
14604 18251 18255 28
14605 18256 18257 28
14606 18256 18258 28
14607 18256 18259 28
14608 18256 18260 28
14609 18261 18262 28
14610 18261 18263 28
14611 18261 18264 28
14612 18261 18265 28
14613 18266 18267 28
14614 18266 18268 28
14615 18266 18269 28
14616 18266 18270 28
14617 18271 18272 28
14618 18271 18273 28
14619 18271 18274 28
14620 18271 18275 28
14621 18276 18277 28
14622 18276 18278 28
14623 18276 18279 28
14624 18276 18280 28
14625 18281 18282 28
14626 18281 18283 28
14627 18281 18284 28
14628 18281 18285 28
14629 18286 18287 28
14630 18286 18288 28
14631 18286 18289 28
14632 18286 18290 28
14633 18291 18292 28
14634 18291 18293 28
14635 18291 18294 28
14636 18291 18295 28
14637 18296 18297 28
14638 18296 18298 28
14639 18296 18299 28
14640 18296 18300 28
14641 18301 18302 28
14642 18301 18303 28
14643 18301 18304 28
14644 18301 18305 28
14645 18306 18307 28
14646 18306 18308 28
14647 18306 18309 28
14648 18306 18310 28
14649 18311 18312 28
14650 18311 18313 28
14651 18311 18314 28
14652 18311 18315 28
14653 18316 18317 28
14654 18316 18318 28
14655 18316 18319 28
14656 18316 18320 28
14657 18321 18322 28
14658 18321 18323 28
14659 18321 18324 28
14660 18321 18325 28
14661 18326 18327 28
14662 18326 18328 28
14663 18326 18329 28
14664 18326 18330 28
14665 18331 18332 28
14666 18331 18333 28
14667 18331 18334 28
14668 18331 18335 28
14669 18336 18337 28
14670 18336 18338 28
14671 18336 18339 28
14672 18336 18340 28
14673 18341 18342 28
14674 18341 18343 28
14675 18341 18344 28
14676 18341 18345 28
14677 18346 18347 28
14678 18346 18348 28
14679 18346 18349 28
14680 18346 18350 28
14681 18351 18352 28
14682 18351 18353 28
14683 18351 18354 28
14684 18351 18355 28
14685 18356 18357 28
14686 18356 18358 28
14687 18356 18359 28
14688 18356 18360 28
14689 18361 18362 28
14690 18361 18363 28
14691 18361 18364 28
14692 18361 18365 28
14693 18366 18367 28
14694 18366 18368 28
14695 18366 18369 28
14696 18366 18370 28
14697 18371 18372 28
14698 18371 18373 28
14699 18371 18374 28
14700 18371 18375 28
14701 18376 18377 28
14702 18376 18378 28
14703 18376 18379 28
14704 18376 18380 28
14705 18381 18382 28
14706 18381 18383 28
14707 18381 18384 28
14708 18381 18385 28
14709 18386 18387 28
14710 18386 18388 28
14711 18386 18389 28
14712 18386 18390 28
14713 18391 18392 28
14714 18391 18393 28
14715 18391 18394 28
14716 18391 18395 28
14717 18396 18397 28
14718 18396 18398 28
14719 18396 18399 28
14720 18396 18400 28
14721 18401 18402 28
14722 18401 18403 28
14723 18401 18404 28
14724 18401 18405 28
14725 18406 18407 28
14726 18406 18408 28
14727 18406 18409 28
14728 18406 18410 28
14729 18411 18412 28
14730 18411 18413 28
14731 18411 18414 28
14732 18411 18415 28
14733 18416 18417 28
14734 18416 18418 28
14735 18416 18419 28
14736 18416 18420 28
14737 18421 18422 28
14738 18421 18423 28
14739 18421 18424 28
14740 18421 18425 28
14741 18426 18427 28
14742 18426 18428 28
14743 18426 18429 28
14744 18426 18430 28
14745 18431 18432 28
14746 18431 18433 28
14747 18431 18434 28
14748 18431 18435 28
14749 18436 18437 28
14750 18436 18438 28
14751 18436 18439 28
14752 18436 18440 28
14753 18441 18442 28
14754 18441 18443 28
14755 18441 18444 28
14756 18441 18445 28
14757 18446 18447 28
14758 18446 18448 28
14759 18446 18449 28
14760 18446 18450 28
14761 18451 18452 28
14762 18451 18453 28
14763 18451 18454 28
14764 18451 18455 28
14765 18456 18457 28
14766 18456 18458 28
14767 18456 18459 28
14768 18456 18460 28
14769 18461 18462 28
14770 18461 18463 28
14771 18461 18464 28
14772 18461 18465 28
14773 18466 18467 28
14774 18466 18468 28
14775 18466 18469 28
14776 18466 18470 28
14777 18471 18472 28
14778 18471 18473 28
14779 18471 18474 28
14780 18471 18475 28
14781 18476 18477 28
14782 18476 18478 28
14783 18476 18479 28
14784 18476 18480 28
14785 18481 18482 28
14786 18481 18483 28
14787 18481 18484 28
14788 18481 18485 28
14789 18486 18487 28
14790 18486 18488 28
14791 18486 18489 28
14792 18486 18490 28
14793 18491 18492 28
14794 18491 18493 28
14795 18491 18494 28
14796 18491 18495 28
14797 18496 18497 28
14798 18496 18498 28
14799 18496 18499 28
14800 18496 18500 28
14801 18501 18502 28
14802 18501 18503 28
14803 18501 18504 28
14804 18501 18505 28
14805 18506 18507 28
14806 18506 18508 28
14807 18506 18509 28
14808 18506 18510 28
14809 18511 18512 28
14810 18511 18513 28
14811 18511 18514 28
14812 18511 18515 28
14813 18516 18517 28
14814 18516 18518 28
14815 18516 18519 28
14816 18516 18520 28
14817 18521 18522 28
14818 18521 18523 28
14819 18521 18524 28
14820 18521 18525 28
14821 18526 18527 28
14822 18526 18528 28
14823 18526 18529 28
14824 18526 18530 28
14825 18531 18532 28
14826 18531 18533 28
14827 18531 18534 28
14828 18531 18535 28
14829 18536 18537 28
14830 18536 18538 28
14831 18536 18539 28
14832 18536 18540 28
14833 18541 18542 28
14834 18541 18543 28
14835 18541 18544 28
14836 18541 18545 28
14837 18546 18547 28
14838 18546 18548 28
14839 18546 18549 28
14840 18546 18550 28
14841 18551 18552 28
14842 18551 18553 28
14843 18551 18554 28
14844 18551 18555 28
14845 18556 18557 28
14846 18556 18558 28
14847 18556 18559 28
14848 18556 18560 28
14849 18561 18562 28
14850 18561 18563 28
14851 18561 18564 28
14852 18561 18565 28
14853 18566 18567 28
14854 18566 18568 28
14855 18566 18569 28
14856 18566 18570 28
14857 18571 18572 28
14858 18571 18573 28
14859 18571 18574 28
14860 18571 18575 28
14861 18576 18577 28
14862 18576 18578 28
14863 18576 18579 28
14864 18576 18580 28
14865 18581 18582 28
14866 18581 18583 28
14867 18581 18584 28
14868 18581 18585 28
14869 18586 18587 28
14870 18586 18588 28
14871 18586 18589 28
14872 18586 18590 28
14873 18591 18592 28
14874 18591 18593 28
14875 18591 18594 28
14876 18591 18595 28
14877 18596 18597 28
14878 18596 18598 28
14879 18596 18599 28
14880 18596 18600 28
14881 18601 18602 28
14882 18601 18603 28
14883 18601 18604 28
14884 18601 18605 28
14885 18606 18607 28
14886 18606 18608 28
14887 18606 18609 28
14888 18606 18610 28
14889 18611 18612 28
14890 18611 18613 28
14891 18611 18614 28
14892 18611 18615 28
14893 18616 18617 28
14894 18616 18618 28
14895 18616 18619 28
14896 18616 18620 28
14897 18621 18622 28
14898 18621 18623 28
14899 18621 18624 28
14900 18621 18625 28
14901 18626 18627 28
14902 18626 18628 28
14903 18626 18629 28
14904 18626 18630 28
14905 18631 18632 28
14906 18631 18633 28
14907 18631 18634 28
14908 18631 18635 28
14909 18636 18637 28
14910 18636 18638 28
14911 18636 18639 28
14912 18636 18640 28
14913 18641 18642 28
14914 18641 18643 28
14915 18641 18644 28
14916 18641 18645 28
14917 18646 18647 28
14918 18646 18648 28
14919 18646 18649 28
14920 18646 18650 28
14921 18651 18652 28
14922 18651 18653 28
14923 18651 18654 28
14924 18651 18655 28
14925 18656 18657 28
14926 18656 18658 28
14927 18656 18659 28
14928 18656 18660 28
14929 18661 18662 28
14930 18661 18663 28
14931 18661 18664 28
14932 18661 18665 28
14933 18666 18667 28
14934 18666 18668 28
14935 18666 18669 28
14936 18666 18670 28
14937 18671 18672 28
14938 18671 18673 28
14939 18671 18674 28
14940 18671 18675 28
14941 18676 18677 28
14942 18676 18678 28
14943 18676 18679 28
14944 18676 18680 28
14945 18681 18682 28
14946 18681 18683 28
14947 18681 18684 28
14948 18681 18685 28
14949 18686 18687 28
14950 18686 18688 28
14951 18686 18689 28
14952 18686 18690 28
14953 18691 18692 28
14954 18691 18693 28
14955 18691 18694 28
14956 18691 18695 28
14957 18696 18697 28
14958 18696 18698 28
14959 18696 18699 28
14960 18696 18700 28
14961 18701 18702 28
14962 18701 18703 28
14963 18701 18704 28
14964 18701 18705 28
14965 18706 18707 28
14966 18706 18708 28
14967 18706 18709 28
14968 18706 18710 28
14969 18711 18712 28
14970 18711 18713 28
14971 18711 18714 28
14972 18711 18715 28
14973 18716 18717 28
14974 18716 18718 28
14975 18716 18719 28
14976 18716 18720 28
14977 18721 18722 28
14978 18721 18723 28
14979 18721 18724 28
14980 18721 18725 28
14981 18726 18727 28
14982 18726 18728 28
14983 18726 18729 28
14984 18726 18730 28
14985 18731 18732 28
14986 18731 18733 28
14987 18731 18734 28
14988 18731 18735 28
14989 18736 18737 28
14990 18736 18738 28
14991 18736 18739 28
14992 18736 18740 28
14993 18741 18742 28
14994 18741 18743 28
14995 18741 18744 28
14996 18741 18745 28
14997 18746 18747 28
14998 18746 18748 28
14999 18746 18749 28
15000 18746 18750 28
15001 18751 18752 28
15002 18751 18753 28
15003 18751 18754 28
15004 18751 18755 28
15005 18756 18757 28
15006 18756 18758 28
15007 18756 18759 28
15008 18756 18760 28
15009 18761 18762 28
15010 18761 18763 28
15011 18761 18764 28
15012 18761 18765 28
15013 18766 18767 28
15014 18766 18768 28
15015 18766 18769 28
15016 18766 18770 28
15017 18771 18772 28
15018 18771 18773 28
15019 18771 18774 28
15020 18771 18775 28
15021 18776 18777 28
15022 18776 18778 28
15023 18776 18779 28
15024 18776 18780 28
15025 18781 18782 28
15026 18781 18783 28
15027 18781 18784 28
15028 18781 18785 28
15029 18786 18787 28
15030 18786 18788 28
15031 18786 18789 28
15032 18786 18790 28
15033 18791 18792 28
15034 18791 18793 28
15035 18791 18794 28
15036 18791 18795 28
15037 18796 18797 28
15038 18796 18798 28
15039 18796 18799 28
15040 18796 18800 28
15041 18801 18802 28
15042 18801 18803 28
15043 18801 18804 28
15044 18801 18805 28
15045 18806 18807 28
15046 18806 18808 28
15047 18806 18809 28
15048 18806 18810 28
15049 18811 18812 28
15050 18811 18813 28
15051 18811 18814 28
15052 18811 18815 28
15053 18816 18817 28
15054 18816 18818 28
15055 18816 18819 28
15056 18816 18820 28
15057 18821 18822 28
15058 18821 18823 28
15059 18821 18824 28
15060 18821 18825 28
15061 18826 18827 28
15062 18826 18828 28
15063 18826 18829 28
15064 18826 18830 28
15065 18831 18832 28
15066 18831 18833 28
15067 18831 18834 28
15068 18831 18835 28
15069 18836 18837 28
15070 18836 18838 28
15071 18836 18839 28
15072 18836 18840 28
15073 18841 18842 28
15074 18841 18843 28
15075 18841 18844 28
15076 18841 18845 28
15077 18846 18847 28
15078 18846 18848 28
15079 18846 18849 28
15080 18846 18850 28
15081 18851 18852 28
15082 18851 18853 28
15083 18851 18854 28
15084 18851 18855 28
15085 18856 18857 28
15086 18856 18858 28
15087 18856 18859 28
15088 18856 18860 28
15089 18861 18862 28
15090 18861 18863 28
15091 18861 18864 28
15092 18861 18865 28
15093 18866 18867 28
15094 18866 18868 28
15095 18866 18869 28
15096 18866 18870 28
15097 18871 18872 28
15098 18871 18873 28
15099 18871 18874 28
15100 18871 18875 28
15101 18876 18877 28
15102 18876 18878 28
15103 18876 18879 28
15104 18876 18880 28
15105 18881 18882 28
15106 18881 18883 28
15107 18881 18884 28
15108 18881 18885 28
15109 18886 18887 28
15110 18886 18888 28
15111 18886 18889 28
15112 18886 18890 28
15113 18891 18892 28
15114 18891 18893 28
15115 18891 18894 28
15116 18891 18895 28
15117 18896 18897 28
15118 18896 18898 28
15119 18896 18899 28
15120 18896 18900 28
15121 18901 18902 28
15122 18901 18903 28
15123 18901 18904 28
15124 18901 18905 28
15125 18906 18907 28
15126 18906 18908 28
15127 18906 18909 28
15128 18906 18910 28
15129 18911 18912 28
15130 18911 18913 28
15131 18911 18914 28
15132 18911 18915 28
15133 18916 18917 28
15134 18916 18918 28
15135 18916 18919 28
15136 18916 18920 28
15137 18921 18922 28
15138 18921 18923 28
15139 18921 18924 28
15140 18921 18925 28
15141 18926 18927 28
15142 18926 18928 28
15143 18926 18929 28
15144 18926 18930 28
15145 18931 18932 28
15146 18931 18933 28
15147 18931 18934 28
15148 18931 18935 28
15149 18936 18937 28
15150 18936 18938 28
15151 18936 18939 28
15152 18936 18940 28
15153 18941 18942 28
15154 18941 18943 28
15155 18941 18944 28
15156 18941 18945 28
15157 18946 18947 28
15158 18946 18948 28
15159 18946 18949 28
15160 18946 18950 28
15161 18951 18952 28
15162 18951 18953 28
15163 18951 18954 28
15164 18951 18955 28
15165 18956 18957 28
15166 18956 18958 28
15167 18956 18959 28
15168 18956 18960 28
15169 18961 18962 28
15170 18961 18963 28
15171 18961 18964 28
15172 18961 18965 28
15173 18966 18967 28
15174 18966 18968 28
15175 18966 18969 28
15176 18966 18970 28
15177 18971 18972 28
15178 18971 18973 28
15179 18971 18974 28
15180 18971 18975 28
15181 18976 18977 28
15182 18976 18978 28
15183 18976 18979 28
15184 18976 18980 28
15185 18981 18982 28
15186 18981 18983 28
15187 18981 18984 28
15188 18981 18985 28
15189 18986 18987 28
15190 18986 18988 28
15191 18986 18989 28
15192 18986 18990 28
15193 18991 18992 28
15194 18991 18993 28
15195 18991 18994 28
15196 18991 18995 28
15197 18996 18997 28
15198 18996 18998 28
15199 18996 18999 28
15200 18996 19000 28
15201 19001 19002 28
15202 19001 19003 28
15203 19001 19004 28
15204 19001 19005 28
15205 19006 19007 28
15206 19006 19008 28
15207 19006 19009 28
15208 19006 19010 28
15209 19011 19012 28
15210 19011 19013 28
15211 19011 19014 28
15212 19011 19015 28
15213 19016 19017 28
15214 19016 19018 28
15215 19016 19019 28
15216 19016 19020 28
15217 19021 19022 28
15218 19021 19023 28
15219 19021 19024 28
15220 19021 19025 28
15221 19026 19027 28
15222 19026 19028 28
15223 19026 19029 28
15224 19026 19030 28
15225 19031 19032 28
15226 19031 19033 28
15227 19031 19034 28
15228 19031 19035 28
15229 19036 19037 28
15230 19036 19038 28
15231 19036 19039 28
15232 19036 19040 28
15233 19041 19042 28
15234 19041 19043 28
15235 19041 19044 28
15236 19041 19045 28
15237 19046 19047 28
15238 19046 19048 28
15239 19046 19049 28
15240 19046 19050 28
15241 19051 19052 28
15242 19051 19053 28
15243 19051 19054 28
15244 19051 19055 28
15245 19056 19057 28
15246 19056 19058 28
15247 19056 19059 28
15248 19056 19060 28
15249 19061 19062 28
15250 19061 19063 28
15251 19061 19064 28
15252 19061 19065 28
15253 19066 19067 28
15254 19066 19068 28
15255 19066 19069 28
15256 19066 19070 28
15257 19071 19072 28
15258 19071 19073 28
15259 19071 19074 28
15260 19071 19075 28
15261 19076 19077 28
15262 19076 19078 28
15263 19076 19079 28
15264 19076 19080 28
15265 19081 19082 28
15266 19081 19083 28
15267 19081 19084 28
15268 19081 19085 28
15269 19086 19087 28
15270 19086 19088 28
15271 19086 19089 28
15272 19086 19090 28
15273 19091 19092 28
15274 19091 19093 28
15275 19091 19094 28
15276 19091 19095 28
15277 19096 19097 28
15278 19096 19098 28
15279 19096 19099 28
15280 19096 19100 28
15281 19101 19102 28
15282 19101 19103 28
15283 19101 19104 28
15284 19101 19105 28
15285 19106 19107 28
15286 19106 19108 28
15287 19106 19109 28
15288 19106 19110 28
15289 19111 19112 28
15290 19111 19113 28
15291 19111 19114 28
15292 19111 19115 28
15293 19116 19117 28
15294 19116 19118 28
15295 19116 19119 28
15296 19116 19120 28
15297 19121 19122 28
15298 19121 19123 28
15299 19121 19124 28
15300 19121 19125 28
15301 19126 19127 28
15302 19126 19128 28
15303 19126 19129 28
15304 19126 19130 28
15305 19131 19132 28
15306 19131 19133 28
15307 19131 19134 28
15308 19131 19135 28
15309 19136 19137 28
15310 19136 19138 28
15311 19136 19139 28
15312 19136 19140 28
15313 19141 19142 28
15314 19141 19143 28
15315 19141 19144 28
15316 19141 19145 28
15317 19146 19147 28
15318 19146 19148 28
15319 19146 19149 28
15320 19146 19150 28
15321 19151 19152 28
15322 19151 19153 28
15323 19151 19154 28
15324 19151 19155 28
15325 19156 19157 28
15326 19156 19158 28
15327 19156 19159 28
15328 19156 19160 28
15329 19161 19162 28
15330 19161 19163 28
15331 19161 19164 28
15332 19161 19165 28
15333 19166 19167 28
15334 19166 19168 28
15335 19166 19169 28
15336 19166 19170 28
15337 19171 19172 28
15338 19171 19173 28
15339 19171 19174 28
15340 19171 19175 28
15341 19176 19177 28
15342 19176 19178 28
15343 19176 19179 28
15344 19176 19180 28
15345 19181 19182 28
15346 19181 19183 28
15347 19181 19184 28
15348 19181 19185 28
15349 19186 19187 28
15350 19186 19188 28
15351 19186 19189 28
15352 19186 19190 28
15353 19191 19192 28
15354 19191 19193 28
15355 19191 19194 28
15356 19191 19195 28
15357 19196 19197 28
15358 19196 19198 28
15359 19196 19199 28
15360 19196 19200 28
15361 19201 19202 28
15362 19201 19203 28
15363 19201 19204 28
15364 19201 19205 28
15365 19206 19207 28
15366 19206 19208 28
15367 19206 19209 28
15368 19206 19210 28
15369 19211 19212 28
15370 19211 19213 28
15371 19211 19214 28
15372 19211 19215 28
15373 19216 19217 28
15374 19216 19218 28
15375 19216 19219 28
15376 19216 19220 28
15377 19221 19222 28
15378 19221 19223 28
15379 19221 19224 28
15380 19221 19225 28
15381 19226 19227 28
15382 19226 19228 28
15383 19226 19229 28
15384 19226 19230 28
15385 19231 19232 28
15386 19231 19233 28
15387 19231 19234 28
15388 19231 19235 28
15389 19236 19237 28
15390 19236 19238 28
15391 19236 19239 28
15392 19236 19240 28
15393 19241 19242 28
15394 19241 19243 28
15395 19241 19244 28
15396 19241 19245 28
15397 19246 19247 28
15398 19246 19248 28
15399 19246 19249 28
15400 19246 19250 28
15401 19251 19252 28
15402 19251 19253 28
15403 19251 19254 28
15404 19251 19255 28
15405 19256 19257 28
15406 19256 19258 28
15407 19256 19259 28
15408 19256 19260 28
15409 19261 19262 28
15410 19261 19263 28
15411 19261 19264 28
15412 19261 19265 28
15413 19266 19267 28
15414 19266 19268 28
15415 19266 19269 28
15416 19266 19270 28
15417 19271 19272 28
15418 19271 19273 28
15419 19271 19274 28
15420 19271 19275 28
15421 19276 19277 28
15422 19276 19278 28
15423 19276 19279 28
15424 19276 19280 28
15425 19281 19282 28
15426 19281 19283 28
15427 19281 19284 28
15428 19281 19285 28
15429 19286 19287 28
15430 19286 19288 28
15431 19286 19289 28
15432 19286 19290 28
15433 19291 19292 28
15434 19291 19293 28
15435 19291 19294 28
15436 19291 19295 28
15437 19296 19297 28
15438 19296 19298 28
15439 19296 19299 28
15440 19296 19300 28
15441 19301 19302 28
15442 19301 19303 28
15443 19301 19304 28
15444 19301 19305 28
15445 19306 19307 28
15446 19306 19308 28
15447 19306 19309 28
15448 19306 19310 28
15449 19311 19312 28
15450 19311 19313 28
15451 19311 19314 28
15452 19311 19315 28
15453 19316 19317 28
15454 19316 19318 28
15455 19316 19319 28
15456 19316 19320 28
15457 19321 19322 28
15458 19321 19323 28
15459 19321 19324 28
15460 19321 19325 28
15461 19326 19327 28
15462 19326 19328 28
15463 19326 19329 28
15464 19326 19330 28
15465 19331 19332 28
15466 19331 19333 28
15467 19331 19334 28
15468 19331 19335 28
15469 19336 19337 28
15470 19336 19338 28
15471 19336 19339 28
15472 19336 19340 28
15473 19341 19342 28
15474 19341 19343 28
15475 19341 19344 28
15476 19341 19345 28
15477 19346 19347 28
15478 19346 19348 28
15479 19346 19349 28
15480 19346 19350 28
15481 19351 19352 28
15482 19351 19353 28
15483 19351 19354 28
15484 19351 19355 28
15485 19356 19357 28
15486 19356 19358 28
15487 19356 19359 28
15488 19356 19360 28
15489 19361 19362 28
15490 19361 19363 28
15491 19361 19364 28
15492 19361 19365 28
15493 19366 19367 28
15494 19366 19368 28
15495 19366 19369 28
15496 19366 19370 28
15497 19371 19372 28
15498 19371 19373 28
15499 19371 19374 28
15500 19371 19375 28
15501 19376 19377 28
15502 19376 19378 28
15503 19376 19379 28
15504 19376 19380 28
15505 19381 19382 28
15506 19381 19383 28
15507 19381 19384 28
15508 19381 19385 28
15509 19386 19387 28
15510 19386 19388 28
15511 19386 19389 28
15512 19386 19390 28
15513 19391 19392 28
15514 19391 19393 28
15515 19391 19394 28
15516 19391 19395 28
15517 19396 19397 28
15518 19396 19398 28
15519 19396 19399 28
15520 19396 19400 28
15521 19401 19402 28
15522 19401 19403 28
15523 19401 19404 28
15524 19401 19405 28
15525 19406 19407 28
15526 19406 19408 28
15527 19406 19409 28
15528 19406 19410 28
15529 19411 19412 28
15530 19411 19413 28
15531 19411 19414 28
15532 19411 19415 28
15533 19416 19417 28
15534 19416 19418 28
15535 19416 19419 28
15536 19416 19420 28
15537 19421 19422 28
15538 19421 19423 28
15539 19421 19424 28
15540 19421 19425 28
15541 19426 19427 28
15542 19426 19428 28
15543 19426 19429 28
15544 19426 19430 28
15545 19431 19432 28
15546 19431 19433 28
15547 19431 19434 28
15548 19431 19435 28
15549 19436 19437 28
15550 19436 19438 28
15551 19436 19439 28
15552 19436 19440 28
15553 19441 19442 28
15554 19441 19443 28
15555 19441 19444 28
15556 19441 19445 28
15557 19446 19447 28
15558 19446 19448 28
15559 19446 19449 28
15560 19446 19450 28
15561 19451 19452 28
15562 19451 19453 28
15563 19451 19454 28
15564 19451 19455 28
15565 19456 19457 28
15566 19456 19458 28
15567 19456 19459 28
15568 19456 19460 28
15569 19461 19462 28
15570 19461 19463 28
15571 19461 19464 28
15572 19461 19465 28
15573 19466 19467 28
15574 19466 19468 28
15575 19466 19469 28
15576 19466 19470 28
15577 19471 19472 28
15578 19471 19473 28
15579 19471 19474 28
15580 19471 19475 28
15581 19476 19477 28
15582 19476 19478 28
15583 19476 19479 28
15584 19476 19480 28
15585 19481 19482 28
15586 19481 19483 28
15587 19481 19484 28
15588 19481 19485 28
15589 19486 19487 28
15590 19486 19488 28
15591 19486 19489 28
15592 19486 19490 28
15593 19491 19492 28
15594 19491 19493 28
15595 19491 19494 28
15596 19491 19495 28
15597 19496 19497 28
15598 19496 19498 28
15599 19496 19499 28
15600 19496 19500 28
15601 19501 19502 28
15602 19501 19503 28
15603 19501 19504 28
15604 19501 19505 28
15605 19506 19507 28
15606 19506 19508 28
15607 19506 19509 28
15608 19506 19510 28
15609 19511 19512 28
15610 19511 19513 28
15611 19511 19514 28
15612 19511 19515 28
15613 19516 19517 28
15614 19516 19518 28
15615 19516 19519 28
15616 19516 19520 28
15617 19521 19522 28
15618 19521 19523 28
15619 19521 19524 28
15620 19521 19525 28
15621 19526 19527 28
15622 19526 19528 28
15623 19526 19529 28
15624 19526 19530 28
15625 19531 19532 28
15626 19531 19533 28
15627 19531 19534 28
15628 19531 19535 28
15629 19536 19537 28
15630 19536 19538 28
15631 19536 19539 28
15632 19536 19540 28
15633 19541 19542 28
15634 19541 19543 28
15635 19541 19544 28
15636 19541 19545 28
15637 19546 19547 28
15638 19546 19548 28
15639 19546 19549 28
15640 19546 19550 28
15641 19551 19552 28
15642 19551 19553 28
15643 19551 19554 28
15644 19551 19555 28
15645 19556 19557 28
15646 19556 19558 28
15647 19556 19559 28
15648 19556 19560 28
15649 19561 19562 28
15650 19561 19563 28
15651 19561 19564 28
15652 19561 19565 28
15653 19566 19567 28
15654 19566 19568 28
15655 19566 19569 28
15656 19566 19570 28
15657 19571 19572 28
15658 19571 19573 28
15659 19571 19574 28
15660 19571 19575 28
15661 19576 19577 28
15662 19576 19578 28
15663 19576 19579 28
15664 19576 19580 28
15665 19581 19582 28
15666 19581 19583 28
15667 19581 19584 28
15668 19581 19585 28
15669 19586 19587 28
15670 19586 19588 28
15671 19586 19589 28
15672 19586 19590 28
15673 19591 19592 28
15674 19591 19593 28
15675 19591 19594 28
15676 19591 19595 28
15677 19596 19597 28
15678 19596 19598 28
15679 19596 19599 28
15680 19596 19600 28
15681 19601 19602 28
15682 19601 19603 28
15683 19601 19604 28
15684 19601 19605 28
15685 19606 19607 28
15686 19606 19608 28
15687 19606 19609 28
15688 19606 19610 28
15689 19611 19612 28
15690 19611 19613 28
15691 19611 19614 28
15692 19611 19615 28
15693 19616 19617 28
15694 19616 19618 28
15695 19616 19619 28
15696 19616 19620 28
15697 19621 19622 28
15698 19621 19623 28
15699 19621 19624 28
15700 19621 19625 28
15701 19626 19627 28
15702 19626 19628 28
15703 19626 19629 28
15704 19626 19630 28
15705 19631 19632 28
15706 19631 19633 28
15707 19631 19634 28
15708 19631 19635 28
15709 19636 19637 28
15710 19636 19638 28
15711 19636 19639 28
15712 19636 19640 28
15713 19641 19642 28
15714 19641 19643 28
15715 19641 19644 28
15716 19641 19645 28
15717 19646 19647 28
15718 19646 19648 28
15719 19646 19649 28
15720 19646 19650 28
15721 19651 19652 28
15722 19651 19653 28
15723 19651 19654 28
15724 19651 19655 28
15725 19656 19657 28
15726 19656 19658 28
15727 19656 19659 28
15728 19656 19660 28
15729 19661 19662 28
15730 19661 19663 28
15731 19661 19664 28
15732 19661 19665 28
15733 19666 19667 28
15734 19666 19668 28
15735 19666 19669 28
15736 19666 19670 28
15737 19671 19672 28
15738 19671 19673 28
15739 19671 19674 28
15740 19671 19675 28
15741 19676 19677 28
15742 19676 19678 28
15743 19676 19679 28
15744 19676 19680 28
15745 19681 19682 28
15746 19681 19683 28
15747 19681 19684 28
15748 19681 19685 28
15749 19686 19687 28
15750 19686 19688 28
15751 19686 19689 28
15752 19686 19690 28
15753 19691 19692 28
15754 19691 19693 28
15755 19691 19694 28
15756 19691 19695 28
15757 19696 19697 28
15758 19696 19698 28
15759 19696 19699 28
15760 19696 19700 28
15761 19701 19702 28
15762 19701 19703 28
15763 19701 19704 28
15764 19701 19705 28
15765 19706 19707 28
15766 19706 19708 28
15767 19706 19709 28
15768 19706 19710 28
15769 19711 19712 28
15770 19711 19713 28
15771 19711 19714 28
15772 19711 19715 28
15773 19716 19717 28
15774 19716 19718 28
15775 19716 19719 28
15776 19716 19720 28
15777 19721 19722 28
15778 19721 19723 28
15779 19721 19724 28
15780 19721 19725 28
15781 19726 19727 28
15782 19726 19728 28
15783 19726 19729 28
15784 19726 19730 28
15785 19731 19732 28
15786 19731 19733 28
15787 19731 19734 28
15788 19731 19735 28
15789 19736 19737 28
15790 19736 19738 28
15791 19736 19739 28
15792 19736 19740 28
15793 19741 19742 28
15794 19741 19743 28
15795 19741 19744 28
15796 19741 19745 28
15797 19746 19747 28
15798 19746 19748 28
15799 19746 19749 28
15800 19746 19750 28
15801 19751 19752 28
15802 19751 19753 28
15803 19751 19754 28
15804 19751 19755 28
15805 19756 19757 28
15806 19756 19758 28
15807 19756 19759 28
15808 19756 19760 28
15809 19761 19762 28
15810 19761 19763 28
15811 19761 19764 28
15812 19761 19765 28
15813 19766 19767 28
15814 19766 19768 28
15815 19766 19769 28
15816 19766 19770 28
15817 19771 19772 28
15818 19771 19773 28
15819 19771 19774 28
15820 19771 19775 28
15821 19776 19777 28
15822 19776 19778 28
15823 19776 19779 28
15824 19776 19780 28
15825 19781 19782 28
15826 19781 19783 28
15827 19781 19784 28
15828 19781 19785 28
15829 19786 19787 28
15830 19786 19788 28
15831 19786 19789 28
15832 19786 19790 28
15833 19791 19792 28
15834 19791 19793 28
15835 19791 19794 28
15836 19791 19795 28
15837 19796 19797 28
15838 19796 19798 28
15839 19796 19799 28
15840 19796 19800 28
15841 19801 19802 28
15842 19801 19803 28
15843 19801 19804 28
15844 19801 19805 28
15845 19806 19807 28
15846 19806 19808 28
15847 19806 19809 28
15848 19806 19810 28
15849 19811 19812 28
15850 19811 19813 28
15851 19811 19814 28
15852 19811 19815 28
15853 19816 19817 28
15854 19816 19818 28
15855 19816 19819 28
15856 19816 19820 28
15857 19821 19822 28
15858 19821 19823 28
15859 19821 19824 28
15860 19821 19825 28
15861 19826 19827 28
15862 19826 19828 28
15863 19826 19829 28
15864 19826 19830 28
15865 19831 19832 28
15866 19831 19833 28
15867 19831 19834 28
15868 19831 19835 28
15869 19836 19837 28
15870 19836 19838 28
15871 19836 19839 28
15872 19836 19840 28
15873 19841 19842 28
15874 19841 19843 28
15875 19841 19844 28
15876 19841 19845 28
15877 19846 19847 28
15878 19846 19848 28
15879 19846 19849 28
15880 19846 19850 28
15881 19851 19852 28
15882 19851 19853 28
15883 19851 19854 28
15884 19851 19855 28
15885 19856 19857 28
15886 19856 19858 28
15887 19856 19859 28
15888 19856 19860 28
15889 19861 19862 28
15890 19861 19863 28
15891 19861 19864 28
15892 19861 19865 28
15893 19866 19867 28
15894 19866 19868 28
15895 19866 19869 28
15896 19866 19870 28
15897 19871 19872 28
15898 19871 19873 28
15899 19871 19874 28
15900 19871 19875 28
15901 19876 19877 28
15902 19876 19878 28
15903 19876 19879 28
15904 19876 19880 28
15905 19881 19882 28
15906 19881 19883 28
15907 19881 19884 28
15908 19881 19885 28
15909 19886 19887 28
15910 19886 19888 28
15911 19886 19889 28
15912 19886 19890 28
15913 19891 19892 28
15914 19891 19893 28
15915 19891 19894 28
15916 19891 19895 28
15917 19896 19897 28
15918 19896 19898 28
15919 19896 19899 28
15920 19896 19900 28
15921 19901 19902 28
15922 19901 19903 28
15923 19901 19904 28
15924 19901 19905 28
15925 19906 19907 28
15926 19906 19908 28
15927 19906 19909 28
15928 19906 19910 28
15929 19911 19912 28
15930 19911 19913 28
15931 19911 19914 28
15932 19911 19915 28
15933 19916 19917 28
15934 19916 19918 28
15935 19916 19919 28
15936 19916 19920 28
15937 19921 19922 28
15938 19921 19923 28
15939 19921 19924 28
15940 19921 19925 28
15941 19926 19927 28
15942 19926 19928 28
15943 19926 19929 28
15944 19926 19930 28
15945 19931 19932 28
15946 19931 19933 28
15947 19931 19934 28
15948 19931 19935 28
15949 19936 19937 28
15950 19936 19938 28
15951 19936 19939 28
15952 19936 19940 28
15953 19941 19942 28
15954 19941 19943 28
15955 19941 19944 28
15956 19941 19945 28
15957 19946 19947 28
15958 19946 19948 28
15959 19946 19949 28
15960 19946 19950 28
15961 19951 19952 28
15962 19951 19953 28
15963 19951 19954 28
15964 19951 19955 28
15965 19956 19957 28
15966 19956 19958 28
15967 19956 19959 28
15968 19956 19960 28
15969 19961 19962 28
15970 19961 19963 28
15971 19961 19964 28
15972 19961 19965 28
15973 19966 19967 28
15974 19966 19968 28
15975 19966 19969 28
15976 19966 19970 28
15977 19971 19972 28
15978 19971 19973 28
15979 19971 19974 28
15980 19971 19975 28
15981 19976 19977 28
15982 19976 19978 28
15983 19976 19979 28
15984 19976 19980 28
15985 19981 19982 28
15986 19981 19983 28
15987 19981 19984 28
15988 19981 19985 28
15989 19986 19987 28
15990 19986 19988 28
15991 19986 19989 28
15992 19986 19990 28
15993 19991 19992 28
15994 19991 19993 28
15995 19991 19994 28
15996 19991 19995 28
15997 19996 19997 28
15998 19996 19998 28
15999 19996 19999 28
16000 19996 20000 28
16001 20001 20002 28
16002 20001 20003 28
16003 20001 20004 28
16004 20001 20005 28
16005 20006 20007 28
16006 20006 20008 28
16007 20006 20009 28
16008 20006 20010 28
16009 20011 20012 28
16010 20011 20013 28
16011 20011 20014 28
16012 20011 20015 28
16013 20016 20017 28
16014 20016 20018 28
16015 20016 20019 28
16016 20016 20020 28
16017 20021 20022 28
16018 20021 20023 28
16019 20021 20024 28
16020 20021 20025 28
16021 20026 20027 28
16022 20026 20028 28
16023 20026 20029 28
16024 20026 20030 28
16025 20031 20032 28
16026 20031 20033 28
16027 20031 20034 28
16028 20031 20035 28
16029 20036 20037 28
16030 20036 20038 28
16031 20036 20039 28
16032 20036 20040 28
16033 20041 20042 28
16034 20041 20043 28
16035 20041 20044 28
16036 20041 20045 28
16037 20046 20047 28
16038 20046 20048 28
16039 20046 20049 28
16040 20046 20050 28
16041 20051 20052 28
16042 20051 20053 28
16043 20051 20054 28
16044 20051 20055 28
16045 20056 20057 28
16046 20056 20058 28
16047 20056 20059 28
16048 20056 20060 28
16049 20061 20062 28
16050 20061 20063 28
16051 20061 20064 28
16052 20061 20065 28
16053 20066 20067 28
16054 20066 20068 28
16055 20066 20069 28
16056 20066 20070 28
16057 20071 20072 28
16058 20071 20073 28
16059 20071 20074 28
16060 20071 20075 28
16061 20076 20077 28
16062 20076 20078 28
16063 20076 20079 28
16064 20076 20080 28
16065 20081 20082 28
16066 20081 20083 28
16067 20081 20084 28
16068 20081 20085 28
16069 20086 20087 28
16070 20086 20088 28
16071 20086 20089 28
16072 20086 20090 28
16073 20091 20092 28
16074 20091 20093 28
16075 20091 20094 28
16076 20091 20095 28
16077 20096 20097 28
16078 20096 20098 28
16079 20096 20099 28
16080 20096 20100 28
16081 20101 20102 28
16082 20101 20103 28
16083 20101 20104 28
16084 20101 20105 28
16085 20106 20107 28
16086 20106 20108 28
16087 20106 20109 28
16088 20106 20110 28
16089 20111 20112 28
16090 20111 20113 28
16091 20111 20114 28
16092 20111 20115 28
16093 20116 20117 28
16094 20116 20118 28
16095 20116 20119 28
16096 20116 20120 28
16097 20121 20122 28
16098 20121 20123 28
16099 20121 20124 28
16100 20121 20125 28
16101 20126 20127 28
16102 20126 20128 28
16103 20126 20129 28
16104 20126 20130 28
16105 20131 20132 28
16106 20131 20133 28
16107 20131 20134 28
16108 20131 20135 28
16109 20136 20137 28
16110 20136 20138 28
16111 20136 20139 28
16112 20136 20140 28
16113 20141 20142 28
16114 20141 20143 28
16115 20141 20144 28
16116 20141 20145 28
16117 20146 20147 28
16118 20146 20148 28
16119 20146 20149 28
16120 20146 20150 28
16121 20151 20152 28
16122 20151 20153 28
16123 20151 20154 28
16124 20151 20155 28
16125 20156 20157 28
16126 20156 20158 28
16127 20156 20159 28
16128 20156 20160 28
16129 20161 20162 28
16130 20161 20163 28
16131 20161 20164 28
16132 20161 20165 28
16133 20166 20167 28
16134 20166 20168 28
16135 20166 20169 28
16136 20166 20170 28
16137 20171 20172 28
16138 20171 20173 28
16139 20171 20174 28
16140 20171 20175 28
16141 20176 20177 28
16142 20176 20178 28
16143 20176 20179 28
16144 20176 20180 28
16145 20181 20182 28
16146 20181 20183 28
16147 20181 20184 28
16148 20181 20185 28
16149 20186 20187 28
16150 20186 20188 28
16151 20186 20189 28
16152 20186 20190 28
16153 20191 20192 28
16154 20191 20193 28
16155 20191 20194 28
16156 20191 20195 28
16157 20196 20197 28
16158 20196 20198 28
16159 20196 20199 28
16160 20196 20200 28
16161 20201 20202 28
16162 20201 20203 28
16163 20201 20204 28
16164 20201 20205 28
16165 20206 20207 28
16166 20206 20208 28
16167 20206 20209 28
16168 20206 20210 28
16169 20211 20212 28
16170 20211 20213 28
16171 20211 20214 28
16172 20211 20215 28
16173 20216 20217 28
16174 20216 20218 28
16175 20216 20219 28
16176 20216 20220 28
16177 20221 20222 28
16178 20221 20223 28
16179 20221 20224 28
16180 20221 20225 28
16181 20226 20227 28
16182 20226 20228 28
16183 20226 20229 28
16184 20226 20230 28
16185 20231 20232 28
16186 20231 20233 28
16187 20231 20234 28
16188 20231 20235 28
16189 20236 20237 28
16190 20236 20238 28
16191 20236 20239 28
16192 20236 20240 28
16193 20241 20242 28
16194 20241 20243 28
16195 20241 20244 28
16196 20241 20245 28
16197 20246 20247 28
16198 20246 20248 28
16199 20246 20249 28
16200 20246 20250 28
16201 20251 20252 28
16202 20251 20253 28
16203 20251 20254 28
16204 20251 20255 28
16205 20256 20257 28
16206 20256 20258 28
16207 20256 20259 28
16208 20256 20260 28
16209 20261 20262 28
16210 20261 20263 28
16211 20261 20264 28
16212 20261 20265 28
16213 20266 20267 28
16214 20266 20268 28
16215 20266 20269 28
16216 20266 20270 28
16217 20271 20272 28
16218 20271 20273 28
16219 20271 20274 28
16220 20271 20275 28
16221 20276 20277 28
16222 20276 20278 28
16223 20276 20279 28
16224 20276 20280 28
16225 20281 20282 28
16226 20281 20283 28
16227 20281 20284 28
16228 20281 20285 28
16229 20286 20287 28
16230 20286 20288 28
16231 20286 20289 28
16232 20286 20290 28
16233 20291 20292 28
16234 20291 20293 28
16235 20291 20294 28
16236 20291 20295 28
16237 20296 20297 28
16238 20296 20298 28
16239 20296 20299 28
16240 20296 20300 28
16241 20301 20302 28
16242 20301 20303 28
16243 20301 20304 28
16244 20301 20305 28
16245 20306 20307 28
16246 20306 20308 28
16247 20306 20309 28
16248 20306 20310 28
16249 20311 20312 28
16250 20311 20313 28
16251 20311 20314 28
16252 20311 20315 28
16253 20316 20317 28
16254 20316 20318 28
16255 20316 20319 28
16256 20316 20320 28
16257 20321 20322 28
16258 20321 20323 28
16259 20321 20324 28
16260 20321 20325 28
16261 20326 20327 28
16262 20326 20328 28
16263 20326 20329 28
16264 20326 20330 28
16265 20331 20332 28
16266 20331 20333 28
16267 20331 20334 28
16268 20331 20335 28
16269 20336 20337 28
16270 20336 20338 28
16271 20336 20339 28
16272 20336 20340 28
16273 20341 20342 28
16274 20341 20343 28
16275 20341 20344 28
16276 20341 20345 28
16277 20346 20347 28
16278 20346 20348 28
16279 20346 20349 28
16280 20346 20350 28
16281 20351 20352 28
16282 20351 20353 28
16283 20351 20354 28
16284 20351 20355 28
16285 20356 20357 28
16286 20356 20358 28
16287 20356 20359 28
16288 20356 20360 28
16289 20361 20362 28
16290 20361 20363 28
16291 20361 20364 28
16292 20361 20365 28
16293 20366 20367 28
16294 20366 20368 28
16295 20366 20369 28
16296 20366 20370 28
16297 20371 20372 28
16298 20371 20373 28
16299 20371 20374 28
16300 20371 20375 28
16301 20376 20377 28
16302 20376 20378 28
16303 20376 20379 28
16304 20376 20380 28
16305 20381 20382 28
16306 20381 20383 28
16307 20381 20384 28
16308 20381 20385 28
16309 20386 20387 28
16310 20386 20388 28
16311 20386 20389 28
16312 20386 20390 28
16313 20391 20392 28
16314 20391 20393 28
16315 20391 20394 28
16316 20391 20395 28
16317 20396 20397 28
16318 20396 20398 28
16319 20396 20399 28
16320 20396 20400 28
16321 20401 20402 28
16322 20401 20403 28
16323 20401 20404 28
16324 20401 20405 28
16325 20406 20407 28
16326 20406 20408 28
16327 20406 20409 28
16328 20406 20410 28
16329 20411 20412 28
16330 20411 20413 28
16331 20411 20414 28
16332 20411 20415 28
16333 20416 20417 28
16334 20416 20418 28
16335 20416 20419 28
16336 20416 20420 28
16337 20421 20422 28
16338 20421 20423 28
16339 20421 20424 28
16340 20421 20425 28
16341 20426 20427 28
16342 20426 20428 28
16343 20426 20429 28
16344 20426 20430 28
16345 20431 20432 28
16346 20431 20433 28
16347 20431 20434 28
16348 20431 20435 28
16349 20436 20437 28
16350 20436 20438 28
16351 20436 20439 28
16352 20436 20440 28
16353 20441 20442 28
16354 20441 20443 28
16355 20441 20444 28
16356 20441 20445 28
16357 20446 20447 28
16358 20446 20448 28
16359 20446 20449 28
16360 20446 20450 28
16361 20451 20452 28
16362 20451 20453 28
16363 20451 20454 28
16364 20451 20455 28
16365 20456 20457 28
16366 20456 20458 28
16367 20456 20459 28
16368 20456 20460 28
16369 20461 20462 28
16370 20461 20463 28
16371 20461 20464 28
16372 20461 20465 28
16373 20466 20467 28
16374 20466 20468 28
16375 20466 20469 28
16376 20466 20470 28
16377 20471 20472 28
16378 20471 20473 28
16379 20471 20474 28
16380 20471 20475 28
16381 20476 20477 28
16382 20476 20478 28
16383 20476 20479 28
16384 20476 20480 28
16385 20481 20482 28
16386 20481 20483 28
16387 20481 20484 28
16388 20481 20485 28
16389 20486 20487 28
16390 20486 20488 28
16391 20486 20489 28
16392 20486 20490 28
16393 20491 20492 28
16394 20491 20493 28
16395 20491 20494 28
16396 20491 20495 28
16397 20496 20497 28
16398 20496 20498 28
16399 20496 20499 28
16400 20496 20500 28
16401 20501 20502 28
16402 20501 20503 28
16403 20501 20504 28
16404 20501 20505 28
16405 20506 20507 28
16406 20506 20508 28
16407 20506 20509 28
16408 20506 20510 28
16409 20511 20512 28
16410 20511 20513 28
16411 20511 20514 28
16412 20511 20515 28
16413 20516 20517 28
16414 20516 20518 28
16415 20516 20519 28
16416 20516 20520 28
16417 20521 20522 28
16418 20521 20523 28
16419 20521 20524 28
16420 20521 20525 28
16421 20526 20527 28
16422 20526 20528 28
16423 20526 20529 28
16424 20526 20530 28
16425 20531 20532 28
16426 20531 20533 28
16427 20531 20534 28
16428 20531 20535 28
16429 20536 20537 28
16430 20536 20538 28
16431 20536 20539 28
16432 20536 20540 28
16433 20541 20542 28
16434 20541 20543 28
16435 20541 20544 28
16436 20541 20545 28
16437 20546 20547 28
16438 20546 20548 28
16439 20546 20549 28
16440 20546 20550 28
16441 20551 20552 28
16442 20551 20553 28
16443 20551 20554 28
16444 20551 20555 28
16445 20556 20557 28
16446 20556 20558 28
16447 20556 20559 28
16448 20556 20560 28
16449 20561 20562 28
16450 20561 20563 28
16451 20561 20564 28
16452 20561 20565 28
16453 20566 20567 28
16454 20566 20568 28
16455 20566 20569 28
16456 20566 20570 28
16457 20571 20572 28
16458 20571 20573 28
16459 20571 20574 28
16460 20571 20575 28
16461 20576 20577 28
16462 20576 20578 28
16463 20576 20579 28
16464 20576 20580 28
16465 20581 20582 28
16466 20581 20583 28
16467 20581 20584 28
16468 20581 20585 28
16469 20586 20587 28
16470 20586 20588 28
16471 20586 20589 28
16472 20586 20590 28
16473 20591 20592 28
16474 20591 20593 28
16475 20591 20594 28
16476 20591 20595 28
16477 20596 20597 28
16478 20596 20598 28
16479 20596 20599 28
16480 20596 20600 28
16481 20601 20602 28
16482 20601 20603 28
16483 20601 20604 28
16484 20601 20605 28
16485 20606 20607 28
16486 20606 20608 28
16487 20606 20609 28
16488 20606 20610 28
16489 20611 20612 28
16490 20611 20613 28
16491 20611 20614 28
16492 20611 20615 28
16493 20616 20617 28
16494 20616 20618 28
16495 20616 20619 28
16496 20616 20620 28
16497 20621 20622 28
16498 20621 20623 28
16499 20621 20624 28
16500 20621 20625 28
16501 20626 20627 28
16502 20626 20628 28
16503 20626 20629 28
16504 20626 20630 28
16505 20631 20632 28
16506 20631 20633 28
16507 20631 20634 28
16508 20631 20635 28
16509 20636 20637 28
16510 20636 20638 28
16511 20636 20639 28
16512 20636 20640 28
16513 20641 20642 28
16514 20641 20643 28
16515 20641 20644 28
16516 20641 20645 28
16517 20646 20647 28
16518 20646 20648 28
16519 20646 20649 28
16520 20646 20650 28
16521 20651 20652 28
16522 20651 20653 28
16523 20651 20654 28
16524 20651 20655 28
16525 20656 20657 28
16526 20656 20658 28
16527 20656 20659 28
16528 20656 20660 28
16529 20661 20662 28
16530 20661 20663 28
16531 20661 20664 28
16532 20661 20665 28
16533 20666 20667 28
16534 20666 20668 28
16535 20666 20669 28
16536 20666 20670 28
16537 20671 20672 28
16538 20671 20673 28
16539 20671 20674 28
16540 20671 20675 28
16541 20676 20677 28
16542 20676 20678 28
16543 20676 20679 28
16544 20676 20680 28
16545 20681 20682 28
16546 20681 20683 28
16547 20681 20684 28
16548 20681 20685 28
16549 20686 20687 28
16550 20686 20688 28
16551 20686 20689 28
16552 20686 20690 28
16553 20691 20692 28
16554 20691 20693 28
16555 20691 20694 28
16556 20691 20695 28
16557 20696 20697 28
16558 20696 20698 28
16559 20696 20699 28
16560 20696 20700 28
16561 20701 20702 28
16562 20701 20703 28
16563 20701 20704 28
16564 20701 20705 28
16565 20706 20707 28
16566 20706 20708 28
16567 20706 20709 28
16568 20706 20710 28
16569 20711 20712 28
16570 20711 20713 28
16571 20711 20714 28
16572 20711 20715 28
16573 20716 20717 28
16574 20716 20718 28
16575 20716 20719 28
16576 20716 20720 28
16577 20721 20722 28
16578 20721 20723 28
16579 20721 20724 28
16580 20721 20725 28
16581 20726 20727 28
16582 20726 20728 28
16583 20726 20729 28
16584 20726 20730 28
16585 20731 20732 28
16586 20731 20733 28
16587 20731 20734 28
16588 20731 20735 28
16589 20736 20737 28
16590 20736 20738 28
16591 20736 20739 28
16592 20736 20740 28
16593 20741 20742 28
16594 20741 20743 28
16595 20741 20744 28
16596 20741 20745 28
16597 20746 20747 28
16598 20746 20748 28
16599 20746 20749 28
16600 20746 20750 28
16601 20751 20752 28
16602 20751 20753 28
16603 20751 20754 28
16604 20751 20755 28
16605 20756 20757 28
16606 20756 20758 28
16607 20756 20759 28
16608 20756 20760 28
16609 20761 20762 28
16610 20761 20763 28
16611 20761 20764 28
16612 20761 20765 28
16613 20766 20767 28
16614 20766 20768 28
16615 20766 20769 28
16616 20766 20770 28
16617 20771 20772 28
16618 20771 20773 28
16619 20771 20774 28
16620 20771 20775 28
16621 20776 20777 28
16622 20776 20778 28
16623 20776 20779 28
16624 20776 20780 28
16625 20781 20782 28
16626 20781 20783 28
16627 20781 20784 28
16628 20781 20785 28
16629 20786 20787 28
16630 20786 20788 28
16631 20786 20789 28
16632 20786 20790 28
16633 20791 20792 28
16634 20791 20793 28
16635 20791 20794 28
16636 20791 20795 28
16637 20796 20797 28
16638 20796 20798 28
16639 20796 20799 28
16640 20796 20800 28
16641 20801 20802 28
16642 20801 20803 28
16643 20801 20804 28
16644 20801 20805 28
16645 20806 20807 28
16646 20806 20808 28
16647 20806 20809 28
16648 20806 20810 28
16649 20811 20812 28
16650 20811 20813 28
16651 20811 20814 28
16652 20811 20815 28
16653 20816 20817 28
16654 20816 20818 28
16655 20816 20819 28
16656 20816 20820 28
16657 20821 20822 28
16658 20821 20823 28
16659 20821 20824 28
16660 20821 20825 28
16661 20826 20827 28
16662 20826 20828 28
16663 20826 20829 28
16664 20826 20830 28
16665 20831 20832 28
16666 20831 20833 28
16667 20831 20834 28
16668 20831 20835 28
16669 20836 20837 28
16670 20836 20838 28
16671 20836 20839 28
16672 20836 20840 28
16673 20841 20842 28
16674 20841 20843 28
16675 20841 20844 28
16676 20841 20845 28
16677 20846 20847 28
16678 20846 20848 28
16679 20846 20849 28
16680 20846 20850 28
16681 20851 20852 28
16682 20851 20853 28
16683 20851 20854 28
16684 20851 20855 28
16685 20856 20857 28
16686 20856 20858 28
16687 20856 20859 28
16688 20856 20860 28
16689 20861 20862 28
16690 20861 20863 28
16691 20861 20864 28
16692 20861 20865 28
16693 20866 20867 28
16694 20866 20868 28
16695 20866 20869 28
16696 20866 20870 28
16697 20871 20872 28
16698 20871 20873 28
16699 20871 20874 28
16700 20871 20875 28
16701 20876 20877 28
16702 20876 20878 28
16703 20876 20879 28
16704 20876 20880 28
16705 20881 20882 28
16706 20881 20883 28
16707 20881 20884 28
16708 20881 20885 28
16709 20886 20887 28
16710 20886 20888 28
16711 20886 20889 28
16712 20886 20890 28
16713 20891 20892 28
16714 20891 20893 28
16715 20891 20894 28
16716 20891 20895 28
16717 20896 20897 28
16718 20896 20898 28
16719 20896 20899 28
16720 20896 20900 28
16721 20901 20902 28
16722 20901 20903 28
16723 20901 20904 28
16724 20901 20905 28
16725 20906 20907 28
16726 20906 20908 28
16727 20906 20909 28
16728 20906 20910 28
16729 20911 20912 28
16730 20911 20913 28
16731 20911 20914 28
16732 20911 20915 28
16733 20916 20917 28
16734 20916 20918 28
16735 20916 20919 28
16736 20916 20920 28
16737 20921 20922 28
16738 20921 20923 28
16739 20921 20924 28
16740 20921 20925 28
16741 20926 20927 28
16742 20926 20928 28
16743 20926 20929 28
16744 20926 20930 28
16745 20931 20932 28
16746 20931 20933 28
16747 20931 20934 28
16748 20931 20935 28
16749 20936 20937 28
16750 20936 20938 28
16751 20936 20939 28
16752 20936 20940 28
16753 20941 20942 28
16754 20941 20943 28
16755 20941 20944 28
16756 20941 20945 28
16757 20946 20947 28
16758 20946 20948 28
16759 20946 20949 28
16760 20946 20950 28
16761 20951 20952 28
16762 20951 20953 28
16763 20951 20954 28
16764 20951 20955 28
16765 20956 20957 28
16766 20956 20958 28
16767 20956 20959 28
16768 20956 20960 28
16769 20961 20962 28
16770 20961 20963 28
16771 20961 20964 28
16772 20961 20965 28
16773 20966 20967 28
16774 20966 20968 28
16775 20966 20969 28
16776 20966 20970 28
16777 20971 20972 28
16778 20971 20973 28
16779 20971 20974 28
16780 20971 20975 28
16781 20976 20977 28
16782 20976 20978 28
16783 20976 20979 28
16784 20976 20980 28
16785 20981 20982 28
16786 20981 20983 28
16787 20981 20984 28
16788 20981 20985 28
16789 20986 20987 28
16790 20986 20988 28
16791 20986 20989 28
16792 20986 20990 28
16793 20991 20992 28
16794 20991 20993 28
16795 20991 20994 28
16796 20991 20995 28
16797 20996 20997 28
16798 20996 20998 28
16799 20996 20999 28
16800 20996 21000 28
16801 21001 21002 28
16802 21001 21003 28
16803 21001 21004 28
16804 21001 21005 28
16805 21006 21007 28
16806 21006 21008 28
16807 21006 21009 28
16808 21006 21010 28
16809 21011 21012 28
16810 21011 21013 28
16811 21011 21014 28
16812 21011 21015 28
16813 21016 21017 28
16814 21016 21018 28
16815 21016 21019 28
16816 21016 21020 28
16817 21021 21022 28
16818 21021 21023 28
16819 21021 21024 28
16820 21021 21025 28
16821 21026 21027 28
16822 21026 21028 28
16823 21026 21029 28
16824 21026 21030 28
16825 21031 21032 28
16826 21031 21033 28
16827 21031 21034 28
16828 21031 21035 28
16829 21036 21037 28
16830 21036 21038 28
16831 21036 21039 28
16832 21036 21040 28
16833 21041 21042 28
16834 21041 21043 28
16835 21041 21044 28
16836 21041 21045 28
16837 21046 21047 28
16838 21046 21048 28
16839 21046 21049 28
16840 21046 21050 28
16841 21051 21052 28
16842 21051 21053 28
16843 21051 21054 28
16844 21051 21055 28
16845 21056 21057 28
16846 21056 21058 28
16847 21056 21059 28
16848 21056 21060 28
16849 21061 21062 28
16850 21061 21063 28
16851 21061 21064 28
16852 21061 21065 28
16853 21066 21067 28
16854 21066 21068 28
16855 21066 21069 28
16856 21066 21070 28
16857 21071 21072 28
16858 21071 21073 28
16859 21071 21074 28
16860 21071 21075 28
16861 21076 21077 28
16862 21076 21078 28
16863 21076 21079 28
16864 21076 21080 28
16865 21081 21082 28
16866 21081 21083 28
16867 21081 21084 28
16868 21081 21085 28
16869 21086 21087 28
16870 21086 21088 28
16871 21086 21089 28
16872 21086 21090 28
16873 21091 21092 28
16874 21091 21093 28
16875 21091 21094 28
16876 21091 21095 28
16877 21096 21097 28
16878 21096 21098 28
16879 21096 21099 28
16880 21096 21100 28
16881 21101 21102 28
16882 21101 21103 28
16883 21101 21104 28
16884 21101 21105 28
16885 21106 21107 28
16886 21106 21108 28
16887 21106 21109 28
16888 21106 21110 28
16889 21111 21112 28
16890 21111 21113 28
16891 21111 21114 28
16892 21111 21115 28
16893 21116 21117 28
16894 21116 21118 28
16895 21116 21119 28
16896 21116 21120 28
16897 21121 21122 28
16898 21121 21123 28
16899 21121 21124 28
16900 21121 21125 28
16901 21126 21127 28
16902 21126 21128 28
16903 21126 21129 28
16904 21126 21130 28
16905 21131 21132 28
16906 21131 21133 28
16907 21131 21134 28
16908 21131 21135 28
16909 21136 21137 28
16910 21136 21138 28
16911 21136 21139 28
16912 21136 21140 28
16913 21141 21142 28
16914 21141 21143 28
16915 21141 21144 28
16916 21141 21145 28
16917 21146 21147 28
16918 21146 21148 28
16919 21146 21149 28
16920 21146 21150 28
16921 21151 21152 28
16922 21151 21153 28
16923 21151 21154 28
16924 21151 21155 28
16925 21156 21157 28
16926 21156 21158 28
16927 21156 21159 28
16928 21156 21160 28
16929 21161 21162 28
16930 21161 21163 28
16931 21161 21164 28
16932 21161 21165 28
16933 21166 21167 28
16934 21166 21168 28
16935 21166 21169 28
16936 21166 21170 28
16937 21171 21172 28
16938 21171 21173 28
16939 21171 21174 28
16940 21171 21175 28
16941 21176 21177 28
16942 21176 21178 28
16943 21176 21179 28
16944 21176 21180 28
16945 21181 21182 28
16946 21181 21183 28
16947 21181 21184 28
16948 21181 21185 28
16949 21186 21187 28
16950 21186 21188 28
16951 21186 21189 28
16952 21186 21190 28
16953 21191 21192 28
16954 21191 21193 28
16955 21191 21194 28
16956 21191 21195 28
16957 21196 21197 28
16958 21196 21198 28
16959 21196 21199 28
16960 21196 21200 28
16961 21201 21202 28
16962 21201 21203 28
16963 21201 21204 28
16964 21201 21205 28
16965 21206 21207 28
16966 21206 21208 28
16967 21206 21209 28
16968 21206 21210 28
16969 21211 21212 28
16970 21211 21213 28
16971 21211 21214 28
16972 21211 21215 28
16973 21216 21217 28
16974 21216 21218 28
16975 21216 21219 28
16976 21216 21220 28
16977 21221 21222 28
16978 21221 21223 28
16979 21221 21224 28
16980 21221 21225 28
16981 21226 21227 28
16982 21226 21228 28
16983 21226 21229 28
16984 21226 21230 28
16985 21231 21232 28
16986 21231 21233 28
16987 21231 21234 28
16988 21231 21235 28
16989 21236 21237 28
16990 21236 21238 28
16991 21236 21239 28
16992 21236 21240 28
16993 21241 21242 28
16994 21241 21243 28
16995 21241 21244 28
16996 21241 21245 28
16997 21246 21247 28
16998 21246 21248 28
16999 21246 21249 28
17000 21246 21250 28
17001 21251 21252 28
17002 21251 21253 28
17003 21251 21254 28
17004 21251 21255 28
17005 21256 21257 28
17006 21256 21258 28
17007 21256 21259 28
17008 21256 21260 28
17009 21261 21262 28
17010 21261 21263 28
17011 21261 21264 28
17012 21261 21265 28
17013 21266 21267 28
17014 21266 21268 28
17015 21266 21269 28
17016 21266 21270 28
17017 21271 21272 28
17018 21271 21273 28
17019 21271 21274 28
17020 21271 21275 28
17021 21276 21277 28
17022 21276 21278 28
17023 21276 21279 28
17024 21276 21280 28
17025 21281 21282 28
17026 21281 21283 28
17027 21281 21284 28
17028 21281 21285 28
17029 21286 21287 28
17030 21286 21288 28
17031 21286 21289 28
17032 21286 21290 28
17033 21291 21292 28
17034 21291 21293 28
17035 21291 21294 28
17036 21291 21295 28
17037 21296 21297 28
17038 21296 21298 28
17039 21296 21299 28
17040 21296 21300 28
17041 21301 21302 28
17042 21301 21303 28
17043 21301 21304 28
17044 21301 21305 28
17045 21306 21307 28
17046 21306 21308 28
17047 21306 21309 28
17048 21306 21310 28
17049 21311 21312 28
17050 21311 21313 28
17051 21311 21314 28
17052 21311 21315 28
17053 21316 21317 28
17054 21316 21318 28
17055 21316 21319 28
17056 21316 21320 28
17057 21321 21322 28
17058 21321 21323 28
17059 21321 21324 28
17060 21321 21325 28
17061 21326 21327 28
17062 21326 21328 28
17063 21326 21329 28
17064 21326 21330 28
17065 21331 21332 28
17066 21331 21333 28
17067 21331 21334 28
17068 21331 21335 28
17069 21336 21337 28
17070 21336 21338 28
17071 21336 21339 28
17072 21336 21340 28
17073 21341 21342 28
17074 21341 21343 28
17075 21341 21344 28
17076 21341 21345 28
17077 21346 21347 28
17078 21346 21348 28
17079 21346 21349 28
17080 21346 21350 28
17081 21351 21352 28
17082 21351 21353 28
17083 21351 21354 28
17084 21351 21355 28
17085 21356 21357 28
17086 21356 21358 28
17087 21356 21359 28
17088 21356 21360 28
17089 21361 21362 28
17090 21361 21363 28
17091 21361 21364 28
17092 21361 21365 28
17093 21366 21367 28
17094 21366 21368 28
17095 21366 21369 28
17096 21366 21370 28
17097 21371 21372 28
17098 21371 21373 28
17099 21371 21374 28
17100 21371 21375 28
17101 21376 21377 28
17102 21376 21378 28
17103 21376 21379 28
17104 21376 21380 28
17105 21381 21382 28
17106 21381 21383 28
17107 21381 21384 28
17108 21381 21385 28
17109 21386 21387 28
17110 21386 21388 28
17111 21386 21389 28
17112 21386 21390 28
17113 21391 21392 28
17114 21391 21393 28
17115 21391 21394 28
17116 21391 21395 28
17117 21396 21397 28
17118 21396 21398 28
17119 21396 21399 28
17120 21396 21400 28
17121 21401 21402 28
17122 21401 21403 28
17123 21401 21404 28
17124 21401 21405 28
17125 21406 21407 28
17126 21406 21408 28
17127 21406 21409 28
17128 21406 21410 28
17129 21411 21412 28
17130 21411 21413 28
17131 21411 21414 28
17132 21411 21415 28
17133 21416 21417 28
17134 21416 21418 28
17135 21416 21419 28
17136 21416 21420 28
17137 21421 21422 28
17138 21421 21423 28
17139 21421 21424 28
17140 21421 21425 28
17141 21426 21427 28
17142 21426 21428 28
17143 21426 21429 28
17144 21426 21430 28
17145 21431 21432 28
17146 21431 21433 28
17147 21431 21434 28
17148 21431 21435 28
17149 21436 21437 28
17150 21436 21438 28
17151 21436 21439 28
17152 21436 21440 28
17153 21441 21442 28
17154 21441 21443 28
17155 21441 21444 28
17156 21441 21445 28
17157 21446 21447 28
17158 21446 21448 28
17159 21446 21449 28
17160 21446 21450 28
17161 21451 21452 28
17162 21451 21453 28
17163 21451 21454 28
17164 21451 21455 28
17165 21456 21457 28
17166 21456 21458 28
17167 21456 21459 28
17168 21456 21460 28
17169 21461 21462 28
17170 21461 21463 28
17171 21461 21464 28
17172 21461 21465 28
17173 21466 21467 28
17174 21466 21468 28
17175 21466 21469 28
17176 21466 21470 28
17177 21471 21472 28
17178 21471 21473 28
17179 21471 21474 28
17180 21471 21475 28
17181 21476 21477 28
17182 21476 21478 28
17183 21476 21479 28
17184 21476 21480 28
17185 21481 21482 28
17186 21481 21483 28
17187 21481 21484 28
17188 21481 21485 28
17189 21486 21487 28
17190 21486 21488 28
17191 21486 21489 28
17192 21486 21490 28
17193 21491 21492 28
17194 21491 21493 28
17195 21491 21494 28
17196 21491 21495 28
17197 21496 21497 28
17198 21496 21498 28
17199 21496 21499 28
17200 21496 21500 28
17201 21501 21502 28
17202 21501 21503 28
17203 21501 21504 28
17204 21501 21505 28
17205 21506 21507 28
17206 21506 21508 28
17207 21506 21509 28
17208 21506 21510 28
17209 21511 21512 28
17210 21511 21513 28
17211 21511 21514 28
17212 21511 21515 28
17213 21516 21517 28
17214 21516 21518 28
17215 21516 21519 28
17216 21516 21520 28
17217 21521 21522 28
17218 21521 21523 28
17219 21521 21524 28
17220 21521 21525 28
17221 21526 21527 28
17222 21526 21528 28
17223 21526 21529 28
17224 21526 21530 28
17225 21531 21532 28
17226 21531 21533 28
17227 21531 21534 28
17228 21531 21535 28
17229 21536 21537 28
17230 21536 21538 28
17231 21536 21539 28
17232 21536 21540 28
17233 21541 21542 28
17234 21541 21543 28
17235 21541 21544 28
17236 21541 21545 28
17237 21546 21547 28
17238 21546 21548 28
17239 21546 21549 28
17240 21546 21550 28
17241 21551 21552 28
17242 21551 21553 28
17243 21551 21554 28
17244 21551 21555 28
17245 21556 21557 28
17246 21556 21558 28
17247 21556 21559 28
17248 21556 21560 28
17249 21561 21562 28
17250 21561 21563 28
17251 21561 21564 28
17252 21561 21565 28
17253 21566 21567 28
17254 21566 21568 28
17255 21566 21569 28
17256 21566 21570 28
17257 21571 21572 28
17258 21571 21573 28
17259 21571 21574 28
17260 21571 21575 28
17261 21576 21577 28
17262 21576 21578 28
17263 21576 21579 28
17264 21576 21580 28
17265 21581 21582 28
17266 21581 21583 28
17267 21581 21584 28
17268 21581 21585 28
17269 21586 21587 28
17270 21586 21588 28
17271 21586 21589 28
17272 21586 21590 28
17273 21591 21592 28
17274 21591 21593 28
17275 21591 21594 28
17276 21591 21595 28
17277 21596 21597 28
17278 21596 21598 28
17279 21596 21599 28
17280 21596 21600 28
17281 21601 21602 28
17282 21601 21603 28
17283 21601 21604 28
17284 21601 21605 28
17285 21606 21607 28
17286 21606 21608 28
17287 21606 21609 28
17288 21606 21610 28
17289 21611 21612 28
17290 21611 21613 28
17291 21611 21614 28
17292 21611 21615 28
17293 21616 21617 28
17294 21616 21618 28
17295 21616 21619 28
17296 21616 21620 28
17297 21621 21622 28
17298 21621 21623 28
17299 21621 21624 28
17300 21621 21625 28
17301 21626 21627 28
17302 21626 21628 28
17303 21626 21629 28
17304 21626 21630 28
17305 21631 21632 28
17306 21631 21633 28
17307 21631 21634 28
17308 21631 21635 28
17309 21636 21637 28
17310 21636 21638 28
17311 21636 21639 28
17312 21636 21640 28
17313 21641 21642 28
17314 21641 21643 28
17315 21641 21644 28
17316 21641 21645 28
17317 21646 21647 28
17318 21646 21648 28
17319 21646 21649 28
17320 21646 21650 28
17321 21651 21652 28
17322 21651 21653 28
17323 21651 21654 28
17324 21651 21655 28
17325 21656 21657 28
17326 21656 21658 28
17327 21656 21659 28
17328 21656 21660 28
17329 21661 21662 28
17330 21661 21663 28
17331 21661 21664 28
17332 21661 21665 28
17333 21666 21667 28
17334 21666 21668 28
17335 21666 21669 28
17336 21666 21670 28
17337 21671 21672 28
17338 21671 21673 28
17339 21671 21674 28
17340 21671 21675 28
17341 21676 21677 28
17342 21676 21678 28
17343 21676 21679 28
17344 21676 21680 28
17345 21681 21682 28
17346 21681 21683 28
17347 21681 21684 28
17348 21681 21685 28
17349 21686 21687 28
17350 21686 21688 28
17351 21686 21689 28
17352 21686 21690 28
17353 21691 21692 28
17354 21691 21693 28
17355 21691 21694 28
17356 21691 21695 28
17357 21696 21697 28
17358 21696 21698 28
17359 21696 21699 28
17360 21696 21700 28
17361 21701 21702 28
17362 21701 21703 28
17363 21701 21704 28
17364 21701 21705 28
17365 21706 21707 28
17366 21706 21708 28
17367 21706 21709 28
17368 21706 21710 28
17369 21711 21712 28
17370 21711 21713 28
17371 21711 21714 28
17372 21711 21715 28
17373 21716 21717 28
17374 21716 21718 28
17375 21716 21719 28
17376 21716 21720 28
17377 21721 21722 28
17378 21721 21723 28
17379 21721 21724 28
17380 21721 21725 28
17381 21726 21727 28
17382 21726 21728 28
17383 21726 21729 28
17384 21726 21730 28
17385 21731 21732 28
17386 21731 21733 28
17387 21731 21734 28
17388 21731 21735 28
17389 21736 21737 28
17390 21736 21738 28
17391 21736 21739 28
17392 21736 21740 28
17393 21741 21742 28
17394 21741 21743 28
17395 21741 21744 28
17396 21741 21745 28
17397 21746 21747 28
17398 21746 21748 28
17399 21746 21749 28
17400 21746 21750 28
17401 21751 21752 28
17402 21751 21753 28
17403 21751 21754 28
17404 21751 21755 28
17405 21756 21757 28
17406 21756 21758 28
17407 21756 21759 28
17408 21756 21760 28
17409 21761 21762 28
17410 21761 21763 28
17411 21761 21764 28
17412 21761 21765 28
17413 21766 21767 28
17414 21766 21768 28
17415 21766 21769 28
17416 21766 21770 28
17417 21771 21772 28
17418 21771 21773 28
17419 21771 21774 28
17420 21771 21775 28
17421 21776 21777 28
17422 21776 21778 28
17423 21776 21779 28
17424 21776 21780 28
17425 21781 21782 28
17426 21781 21783 28
17427 21781 21784 28
17428 21781 21785 28
17429 21786 21787 28
17430 21786 21788 28
17431 21786 21789 28
17432 21786 21790 28
17433 21791 21792 28
17434 21791 21793 28
17435 21791 21794 28
17436 21791 21795 28
17437 21796 21797 28
17438 21796 21798 28
17439 21796 21799 28
17440 21796 21800 28
17441 21801 21802 28
17442 21801 21803 28
17443 21801 21804 28
17444 21801 21805 28
17445 21806 21807 28
17446 21806 21808 28
17447 21806 21809 28
17448 21806 21810 28
17449 21811 21812 28
17450 21811 21813 28
17451 21811 21814 28
17452 21811 21815 28
17453 21816 21817 28
17454 21816 21818 28
17455 21816 21819 28
17456 21816 21820 28
17457 21821 21822 28
17458 21821 21823 28
17459 21821 21824 28
17460 21821 21825 28
17461 21826 21827 28
17462 21826 21828 28
17463 21826 21829 28
17464 21826 21830 28
17465 21831 21832 28
17466 21831 21833 28
17467 21831 21834 28
17468 21831 21835 28
17469 21836 21837 28
17470 21836 21838 28
17471 21836 21839 28
17472 21836 21840 28
17473 21841 21842 28
17474 21841 21843 28
17475 21841 21844 28
17476 21841 21845 28
17477 21846 21847 28
17478 21846 21848 28
17479 21846 21849 28
17480 21846 21850 28
17481 21851 21852 28
17482 21851 21853 28
17483 21851 21854 28
17484 21851 21855 28
17485 21856 21857 28
17486 21856 21858 28
17487 21856 21859 28
17488 21856 21860 28
17489 21861 21862 28
17490 21861 21863 28
17491 21861 21864 28
17492 21861 21865 28
17493 21866 21867 28
17494 21866 21868 28
17495 21866 21869 28
17496 21866 21870 28
17497 21871 21872 28
17498 21871 21873 28
17499 21871 21874 28
17500 21871 21875 28
17501 21876 21877 28
17502 21876 21878 28
17503 21876 21879 28
17504 21876 21880 28
17505 21881 21882 28
17506 21881 21883 28
17507 21881 21884 28
17508 21881 21885 28
17509 21886 21887 28
17510 21886 21888 28
17511 21886 21889 28
17512 21886 21890 28
17513 21891 21892 28
17514 21891 21893 28
17515 21891 21894 28
17516 21891 21895 28
17517 21896 21897 28
17518 21896 21898 28
17519 21896 21899 28
17520 21896 21900 28
17521 21901 21902 28
17522 21901 21903 28
17523 21901 21904 28
17524 21901 21905 28
17525 21906 21907 28
17526 21906 21908 28
17527 21906 21909 28
17528 21906 21910 28
17529 21911 21912 28
17530 21911 21913 28
17531 21911 21914 28
17532 21911 21915 28
17533 21916 21917 28
17534 21916 21918 28
17535 21916 21919 28
17536 21916 21920 28
17537 21921 21922 28
17538 21921 21923 28
17539 21921 21924 28
17540 21921 21925 28
17541 21926 21927 28
17542 21926 21928 28
17543 21926 21929 28
17544 21926 21930 28
17545 21931 21932 28
17546 21931 21933 28
17547 21931 21934 28
17548 21931 21935 28
17549 21936 21937 28
17550 21936 21938 28
17551 21936 21939 28
17552 21936 21940 28
17553 21941 21942 28
17554 21941 21943 28
17555 21941 21944 28
17556 21941 21945 28
17557 21946 21947 28
17558 21946 21948 28
17559 21946 21949 28
17560 21946 21950 28
17561 21951 21952 28
17562 21951 21953 28
17563 21951 21954 28
17564 21951 21955 28
17565 21956 21957 28
17566 21956 21958 28
17567 21956 21959 28
17568 21956 21960 28
17569 21961 21962 28
17570 21961 21963 28
17571 21961 21964 28
17572 21961 21965 28
17573 21966 21967 28
17574 21966 21968 28
17575 21966 21969 28
17576 21966 21970 28
17577 21971 21972 28
17578 21971 21973 28
17579 21971 21974 28
17580 21971 21975 28
17581 21976 21977 28
17582 21976 21978 28
17583 21976 21979 28
17584 21976 21980 28
17585 21981 21982 28
17586 21981 21983 28
17587 21981 21984 28
17588 21981 21985 28
17589 21986 21987 28
17590 21986 21988 28
17591 21986 21989 28
17592 21986 21990 28
17593 21991 21992 28
17594 21991 21993 28
17595 21991 21994 28
17596 21991 21995 28
17597 21996 21997 28
17598 21996 21998 28
17599 21996 21999 28
17600 21996 22000 28
17601 22001 22002 28
17602 22001 22003 28
17603 22001 22004 28
17604 22001 22005 28
17605 22006 22007 28
17606 22006 22008 28
17607 22006 22009 28
17608 22006 22010 28
17609 22011 22012 28
17610 22011 22013 28
17611 22011 22014 28
17612 22011 22015 28
17613 22016 22017 28
17614 22016 22018 28
17615 22016 22019 28
17616 22016 22020 28
17617 22021 22022 28
17618 22021 22023 28
17619 22021 22024 28
17620 22021 22025 28
17621 22026 22027 28
17622 22026 22028 28
17623 22026 22029 28
17624 22026 22030 28
17625 22031 22032 28
17626 22031 22033 28
17627 22031 22034 28
17628 22031 22035 28
17629 22036 22037 28
17630 22036 22038 28
17631 22036 22039 28
17632 22036 22040 28
17633 22041 22042 28
17634 22041 22043 28
17635 22041 22044 28
17636 22041 22045 28
17637 22046 22047 28
17638 22046 22048 28
17639 22046 22049 28
17640 22046 22050 28
17641 22051 22052 28
17642 22051 22053 28
17643 22051 22054 28
17644 22051 22055 28
17645 22056 22057 28
17646 22056 22058 28
17647 22056 22059 28
17648 22056 22060 28
17649 22061 22062 28
17650 22061 22063 28
17651 22061 22064 28
17652 22061 22065 28
17653 22066 22067 28
17654 22066 22068 28
17655 22066 22069 28
17656 22066 22070 28
17657 22071 22072 28
17658 22071 22073 28
17659 22071 22074 28
17660 22071 22075 28
17661 22076 22077 28
17662 22076 22078 28
17663 22076 22079 28
17664 22076 22080 28
17665 22081 22082 28
17666 22081 22083 28
17667 22081 22084 28
17668 22081 22085 28
17669 22086 22087 28
17670 22086 22088 28
17671 22086 22089 28
17672 22086 22090 28
17673 22091 22092 28
17674 22091 22093 28
17675 22091 22094 28
17676 22091 22095 28
17677 22096 22097 28
17678 22096 22098 28
17679 22096 22099 28
17680 22096 22100 28
17681 22101 22102 28
17682 22101 22103 28
17683 22101 22104 28
17684 22101 22105 28
17685 22106 22107 28
17686 22106 22108 28
17687 22106 22109 28
17688 22106 22110 28
17689 22111 22112 28
17690 22111 22113 28
17691 22111 22114 28
17692 22111 22115 28
17693 22116 22117 28
17694 22116 22118 28
17695 22116 22119 28
17696 22116 22120 28
17697 22121 22122 28
17698 22121 22123 28
17699 22121 22124 28
17700 22121 22125 28
17701 22126 22127 28
17702 22126 22128 28
17703 22126 22129 28
17704 22126 22130 28
17705 22131 22132 28
17706 22131 22133 28
17707 22131 22134 28
17708 22131 22135 28
17709 22136 22137 28
17710 22136 22138 28
17711 22136 22139 28
17712 22136 22140 28
17713 22141 22142 28
17714 22141 22143 28
17715 22141 22144 28
17716 22141 22145 28
17717 22146 22147 28
17718 22146 22148 28
17719 22146 22149 28
17720 22146 22150 28
17721 22151 22152 28
17722 22151 22153 28
17723 22151 22154 28
17724 22151 22155 28
17725 22156 22157 28
17726 22156 22158 28
17727 22156 22159 28
17728 22156 22160 28
17729 22161 22162 28
17730 22161 22163 28
17731 22161 22164 28
17732 22161 22165 28
17733 22166 22167 28
17734 22166 22168 28
17735 22166 22169 28
17736 22166 22170 28
17737 22171 22172 28
17738 22171 22173 28
17739 22171 22174 28
17740 22171 22175 28
17741 22176 22177 28
17742 22176 22178 28
17743 22176 22179 28
17744 22176 22180 28
17745 22181 22182 28
17746 22181 22183 28
17747 22181 22184 28
17748 22181 22185 28
17749 22186 22187 28
17750 22186 22188 28
17751 22186 22189 28
17752 22186 22190 28
17753 22191 22192 28
17754 22191 22193 28
17755 22191 22194 28
17756 22191 22195 28
17757 22196 22197 28
17758 22196 22198 28
17759 22196 22199 28
17760 22196 22200 28
17761 22201 22202 28
17762 22201 22203 28
17763 22201 22204 28
17764 22201 22205 28
17765 22206 22207 28
17766 22206 22208 28
17767 22206 22209 28
17768 22206 22210 28
17769 22211 22212 28
17770 22211 22213 28
17771 22211 22214 28
17772 22211 22215 28
17773 22216 22217 28
17774 22216 22218 28
17775 22216 22219 28
17776 22216 22220 28
17777 22221 22222 28
17778 22221 22223 28
17779 22221 22224 28
17780 22221 22225 28
17781 22226 22227 28
17782 22226 22228 28
17783 22226 22229 28
17784 22226 22230 28
17785 22231 22232 28
17786 22231 22233 28
17787 22231 22234 28
17788 22231 22235 28
17789 22236 22237 28
17790 22236 22238 28
17791 22236 22239 28
17792 22236 22240 28
17793 22241 22242 28
17794 22241 22243 28
17795 22241 22244 28
17796 22241 22245 28
17797 22246 22247 28
17798 22246 22248 28
17799 22246 22249 28
17800 22246 22250 28
17801 22251 22252 28
17802 22251 22253 28
17803 22251 22254 28
17804 22251 22255 28
17805 22256 22257 28
17806 22256 22258 28
17807 22256 22259 28
17808 22256 22260 28
17809 22261 22262 28
17810 22261 22263 28
17811 22261 22264 28
17812 22261 22265 28
17813 22266 22267 28
17814 22266 22268 28
17815 22266 22269 28
17816 22266 22270 28
17817 22271 22272 28
17818 22271 22273 28
17819 22271 22274 28
17820 22271 22275 28
17821 22276 22277 28
17822 22276 22278 28
17823 22276 22279 28
17824 22276 22280 28
17825 22281 22282 28
17826 22281 22283 28
17827 22281 22284 28
17828 22281 22285 28
17829 22286 22287 28
17830 22286 22288 28
17831 22286 22289 28
17832 22286 22290 28
17833 22291 22292 28
17834 22291 22293 28
17835 22291 22294 28
17836 22291 22295 28
17837 22296 22297 28
17838 22296 22298 28
17839 22296 22299 28
17840 22296 22300 28
17841 22301 22302 28
17842 22301 22303 28
17843 22301 22304 28
17844 22301 22305 28
17845 22306 22307 28
17846 22306 22308 28
17847 22306 22309 28
17848 22306 22310 28
17849 22311 22312 28
17850 22311 22313 28
17851 22311 22314 28
17852 22311 22315 28
17853 22316 22317 28
17854 22316 22318 28
17855 22316 22319 28
17856 22316 22320 28
17857 22321 22322 28
17858 22321 22323 28
17859 22321 22324 28
17860 22321 22325 28
17861 22326 22327 28
17862 22326 22328 28
17863 22326 22329 28
17864 22326 22330 28
17865 22331 22332 28
17866 22331 22333 28
17867 22331 22334 28
17868 22331 22335 28
17869 22336 22337 28
17870 22336 22338 28
17871 22336 22339 28
17872 22336 22340 28
17873 22341 22342 28
17874 22341 22343 28
17875 22341 22344 28
17876 22341 22345 28
17877 22346 22347 28
17878 22346 22348 28
17879 22346 22349 28
17880 22346 22350 28
17881 22351 22352 28
17882 22351 22353 28
17883 22351 22354 28
17884 22351 22355 28
17885 22356 22357 28
17886 22356 22358 28
17887 22356 22359 28
17888 22356 22360 28
17889 22361 22362 28
17890 22361 22363 28
17891 22361 22364 28
17892 22361 22365 28
17893 22366 22367 28
17894 22366 22368 28
17895 22366 22369 28
17896 22366 22370 28
17897 22371 22372 28
17898 22371 22373 28
17899 22371 22374 28
17900 22371 22375 28
17901 22376 22377 28
17902 22376 22378 28
17903 22376 22379 28
17904 22376 22380 28
17905 22381 22382 28
17906 22381 22383 28
17907 22381 22384 28
17908 22381 22385 28
17909 22386 22387 28
17910 22386 22388 28
17911 22386 22389 28
17912 22386 22390 28
17913 22391 22392 28
17914 22391 22393 28
17915 22391 22394 28
17916 22391 22395 28
17917 22396 22397 28
17918 22396 22398 28
17919 22396 22399 28
17920 22396 22400 28
17921 22401 22402 28
17922 22401 22403 28
17923 22401 22404 28
17924 22401 22405 28
17925 22406 22407 28
17926 22406 22408 28
17927 22406 22409 28
17928 22406 22410 28
17929 22411 22412 28
17930 22411 22413 28
17931 22411 22414 28
17932 22411 22415 28
17933 22416 22417 28
17934 22416 22418 28
17935 22416 22419 28
17936 22416 22420 28
17937 22421 22422 28
17938 22421 22423 28
17939 22421 22424 28
17940 22421 22425 28
17941 22426 22427 28
17942 22426 22428 28
17943 22426 22429 28
17944 22426 22430 28
17945 22431 22432 28
17946 22431 22433 28
17947 22431 22434 28
17948 22431 22435 28
17949 22436 22437 28
17950 22436 22438 28
17951 22436 22439 28
17952 22436 22440 28
17953 22441 22442 28
17954 22441 22443 28
17955 22441 22444 28
17956 22441 22445 28
17957 22446 22447 28
17958 22446 22448 28
17959 22446 22449 28
17960 22446 22450 28
17961 22451 22452 28
17962 22451 22453 28
17963 22451 22454 28
17964 22451 22455 28
17965 22456 22457 28
17966 22456 22458 28
17967 22456 22459 28
17968 22456 22460 28
17969 22461 22462 28
17970 22461 22463 28
17971 22461 22464 28
17972 22461 22465 28
17973 22466 22467 28
17974 22466 22468 28
17975 22466 22469 28
17976 22466 22470 28
17977 22471 22472 28
17978 22471 22473 28
17979 22471 22474 28
17980 22471 22475 28
17981 22476 22477 28
17982 22476 22478 28
17983 22476 22479 28
17984 22476 22480 28
17985 22481 22482 28
17986 22481 22483 28
17987 22481 22484 28
17988 22481 22485 28
17989 22486 22487 28
17990 22486 22488 28
17991 22486 22489 28
17992 22486 22490 28
17993 22491 22492 28
17994 22491 22493 28
17995 22491 22494 28
17996 22491 22495 28
17997 22496 22497 28
17998 22496 22498 28
17999 22496 22499 28
18000 22496 22500 28
18001 22501 22502 28
18002 22501 22503 28
18003 22501 22504 28
18004 22501 22505 28
18005 22506 22507 28
18006 22506 22508 28
18007 22506 22509 28
18008 22506 22510 28
18009 22511 22512 28
18010 22511 22513 28
18011 22511 22514 28
18012 22511 22515 28
18013 22516 22517 28
18014 22516 22518 28
18015 22516 22519 28
18016 22516 22520 28
18017 22521 22522 28
18018 22521 22523 28
18019 22521 22524 28
18020 22521 22525 28
18021 22526 22527 28
18022 22526 22528 28
18023 22526 22529 28
18024 22526 22530 28
18025 22531 22532 28
18026 22531 22533 28
18027 22531 22534 28
18028 22531 22535 28
18029 22536 22537 28
18030 22536 22538 28
18031 22536 22539 28
18032 22536 22540 28
18033 22541 22542 28
18034 22541 22543 28
18035 22541 22544 28
18036 22541 22545 28
18037 22546 22547 28
18038 22546 22548 28
18039 22546 22549 28
18040 22546 22550 28
18041 22551 22552 28
18042 22551 22553 28
18043 22551 22554 28
18044 22551 22555 28
18045 22556 22557 28
18046 22556 22558 28
18047 22556 22559 28
18048 22556 22560 28
18049 22561 22562 28
18050 22561 22563 28
18051 22561 22564 28
18052 22561 22565 28
18053 22566 22567 28
18054 22566 22568 28
18055 22566 22569 28
18056 22566 22570 28
18057 22571 22572 28
18058 22571 22573 28
18059 22571 22574 28
18060 22571 22575 28
18061 22576 22577 28
18062 22576 22578 28
18063 22576 22579 28
18064 22576 22580 28
18065 22581 22582 28
18066 22581 22583 28
18067 22581 22584 28
18068 22581 22585 28
18069 22586 22587 28
18070 22586 22588 28
18071 22586 22589 28
18072 22586 22590 28
18073 22591 22592 28
18074 22591 22593 28
18075 22591 22594 28
18076 22591 22595 28
18077 22596 22597 28
18078 22596 22598 28
18079 22596 22599 28
18080 22596 22600 28
18081 22601 22602 28
18082 22601 22603 28
18083 22601 22604 28
18084 22601 22605 28
18085 22606 22607 28
18086 22606 22608 28
18087 22606 22609 28
18088 22606 22610 28
18089 22611 22612 28
18090 22611 22613 28
18091 22611 22614 28
18092 22611 22615 28
18093 22616 22617 28
18094 22616 22618 28
18095 22616 22619 28
18096 22616 22620 28
18097 22621 22622 28
18098 22621 22623 28
18099 22621 22624 28
18100 22621 22625 28
18101 22626 22627 28
18102 22626 22628 28
18103 22626 22629 28
18104 22626 22630 28
18105 22631 22632 28
18106 22631 22633 28
18107 22631 22634 28
18108 22631 22635 28
18109 22636 22637 28
18110 22636 22638 28
18111 22636 22639 28
18112 22636 22640 28
18113 22641 22642 28
18114 22641 22643 28
18115 22641 22644 28
18116 22641 22645 28
18117 22646 22647 28
18118 22646 22648 28
18119 22646 22649 28
18120 22646 22650 28
18121 22651 22652 28
18122 22651 22653 28
18123 22651 22654 28
18124 22651 22655 28
18125 22656 22657 28
18126 22656 22658 28
18127 22656 22659 28
18128 22656 22660 28
18129 22661 22662 28
18130 22661 22663 28
18131 22661 22664 28
18132 22661 22665 28
18133 22666 22667 28
18134 22666 22668 28
18135 22666 22669 28
18136 22666 22670 28
18137 22671 22672 28
18138 22671 22673 28
18139 22671 22674 28
18140 22671 22675 28
18141 22676 22677 28
18142 22676 22678 28
18143 22676 22679 28
18144 22676 22680 28
18145 22681 22682 28
18146 22681 22683 28
18147 22681 22684 28
18148 22681 22685 28
18149 22686 22687 28
18150 22686 22688 28
18151 22686 22689 28
18152 22686 22690 28
18153 22691 22692 28
18154 22691 22693 28
18155 22691 22694 28
18156 22691 22695 28
18157 22696 22697 28
18158 22696 22698 28
18159 22696 22699 28
18160 22696 22700 28
18161 22701 22702 28
18162 22701 22703 28
18163 22701 22704 28
18164 22701 22705 28
18165 22706 22707 28
18166 22706 22708 28
18167 22706 22709 28
18168 22706 22710 28
18169 22711 22712 28
18170 22711 22713 28
18171 22711 22714 28
18172 22711 22715 28
18173 22716 22717 28
18174 22716 22718 28
18175 22716 22719 28
18176 22716 22720 28
18177 22721 22722 28
18178 22721 22723 28
18179 22721 22724 28
18180 22721 22725 28
18181 22726 22727 28
18182 22726 22728 28
18183 22726 22729 28
18184 22726 22730 28
18185 22731 22732 28
18186 22731 22733 28
18187 22731 22734 28
18188 22731 22735 28
18189 22736 22737 28
18190 22736 22738 28
18191 22736 22739 28
18192 22736 22740 28
18193 22741 22742 28
18194 22741 22743 28
18195 22741 22744 28
18196 22741 22745 28
18197 22746 22747 28
18198 22746 22748 28
18199 22746 22749 28
18200 22746 22750 28
18201 22751 22752 28
18202 22751 22753 28
18203 22751 22754 28
18204 22751 22755 28
18205 22756 22757 28
18206 22756 22758 28
18207 22756 22759 28
18208 22756 22760 28
18209 22761 22762 28
18210 22761 22763 28
18211 22761 22764 28
18212 22761 22765 28
18213 22766 22767 28
18214 22766 22768 28
18215 22766 22769 28
18216 22766 22770 28
18217 22771 22772 28
18218 22771 22773 28
18219 22771 22774 28
18220 22771 22775 28
18221 22776 22777 28
18222 22776 22778 28
18223 22776 22779 28
18224 22776 22780 28
18225 22781 22782 28
18226 22781 22783 28
18227 22781 22784 28
18228 22781 22785 28
18229 22786 22787 28
18230 22786 22788 28
18231 22786 22789 28
18232 22786 22790 28
18233 22791 22792 28
18234 22791 22793 28
18235 22791 22794 28
18236 22791 22795 28
18237 22796 22797 28
18238 22796 22798 28
18239 22796 22799 28
18240 22796 22800 28
18241 22801 22802 28
18242 22801 22803 28
18243 22801 22804 28
18244 22801 22805 28
18245 22806 22807 28
18246 22806 22808 28
18247 22806 22809 28
18248 22806 22810 28
18249 22811 22812 28
18250 22811 22813 28
18251 22811 22814 28
18252 22811 22815 28
18253 22816 22817 28
18254 22816 22818 28
18255 22816 22819 28
18256 22816 22820 28
18257 22821 22822 28
18258 22821 22823 28
18259 22821 22824 28
18260 22821 22825 28
18261 22826 22827 28
18262 22826 22828 28
18263 22826 22829 28
18264 22826 22830 28
18265 22831 22832 28
18266 22831 22833 28
18267 22831 22834 28
18268 22831 22835 28
18269 22836 22837 28
18270 22836 22838 28
18271 22836 22839 28
18272 22836 22840 28
18273 22841 22842 28
18274 22841 22843 28
18275 22841 22844 28
18276 22841 22845 28
18277 22846 22847 28
18278 22846 22848 28
18279 22846 22849 28
18280 22846 22850 28
18281 22851 22852 28
18282 22851 22853 28
18283 22851 22854 28
18284 22851 22855 28
18285 22856 22857 28
18286 22856 22858 28
18287 22856 22859 28
18288 22856 22860 28
18289 22861 22862 28
18290 22861 22863 28
18291 22861 22864 28
18292 22861 22865 28
18293 22866 22867 28
18294 22866 22868 28
18295 22866 22869 28
18296 22866 22870 28
18297 22871 22872 28
18298 22871 22873 28
18299 22871 22874 28
18300 22871 22875 28
18301 22876 22877 28
18302 22876 22878 28
18303 22876 22879 28
18304 22876 22880 28
18305 22881 22882 28
18306 22881 22883 28
18307 22881 22884 28
18308 22881 22885 28
18309 22886 22887 28
18310 22886 22888 28
18311 22886 22889 28
18312 22886 22890 28
18313 22891 22892 28
18314 22891 22893 28
18315 22891 22894 28
18316 22891 22895 28
18317 22896 22897 28
18318 22896 22898 28
18319 22896 22899 28
18320 22896 22900 28
18321 22901 22902 28
18322 22901 22903 28
18323 22901 22904 28
18324 22901 22905 28
18325 22906 22907 28
18326 22906 22908 28
18327 22906 22909 28
18328 22906 22910 28
18329 22911 22912 28
18330 22911 22913 28
18331 22911 22914 28
18332 22911 22915 28
18333 22916 22917 28
18334 22916 22918 28
18335 22916 22919 28
18336 22916 22920 28
18337 22921 22922 28
18338 22921 22923 28
18339 22921 22924 28
18340 22921 22925 28
18341 22926 22927 28
18342 22926 22928 28
18343 22926 22929 28
18344 22926 22930 28
18345 22931 22932 28
18346 22931 22933 28
18347 22931 22934 28
18348 22931 22935 28
18349 22936 22937 28
18350 22936 22938 28
18351 22936 22939 28
18352 22936 22940 28
18353 22941 22942 28
18354 22941 22943 28
18355 22941 22944 28
18356 22941 22945 28
18357 22946 22947 28
18358 22946 22948 28
18359 22946 22949 28
18360 22946 22950 28
18361 22951 22952 28
18362 22951 22953 28
18363 22951 22954 28
18364 22951 22955 28
18365 22956 22957 28
18366 22956 22958 28
18367 22956 22959 28
18368 22956 22960 28
18369 22961 22962 28
18370 22961 22963 28
18371 22961 22964 28
18372 22961 22965 28
18373 22966 22967 28
18374 22966 22968 28
18375 22966 22969 28
18376 22966 22970 28
18377 22971 22972 28
18378 22971 22973 28
18379 22971 22974 28
18380 22971 22975 28
18381 22976 22977 28
18382 22976 22978 28
18383 22976 22979 28
18384 22976 22980 28
18385 22981 22982 28
18386 22981 22983 28
18387 22981 22984 28
18388 22981 22985 28
18389 22986 22987 28
18390 22986 22988 28
18391 22986 22989 28
18392 22986 22990 28
18393 22991 22992 28
18394 22991 22993 28
18395 22991 22994 28
18396 22991 22995 28
18397 22996 22997 28
18398 22996 22998 28
18399 22996 22999 28
18400 22996 23000 28
18401 23001 23002 28
18402 23001 23003 28
18403 23001 23004 28
18404 23001 23005 28
18405 23006 23007 28
18406 23006 23008 28
18407 23006 23009 28
18408 23006 23010 28
18409 23011 23012 28
18410 23011 23013 28
18411 23011 23014 28
18412 23011 23015 28
18413 23016 23017 28
18414 23016 23018 28
18415 23016 23019 28
18416 23016 23020 28
18417 23021 23022 28
18418 23021 23023 28
18419 23021 23024 28
18420 23021 23025 28
18421 23026 23027 28
18422 23026 23028 28
18423 23026 23029 28
18424 23026 23030 28
18425 23031 23032 28
18426 23031 23033 28
18427 23031 23034 28
18428 23031 23035 28
18429 23036 23037 28
18430 23036 23038 28
18431 23036 23039 28
18432 23036 23040 28
18433 23041 23042 28
18434 23041 23043 28
18435 23041 23044 28
18436 23041 23045 28
18437 23046 23047 28
18438 23046 23048 28
18439 23046 23049 28
18440 23046 23050 28
18441 23051 23052 28
18442 23051 23053 28
18443 23051 23054 28
18444 23051 23055 28
18445 23056 23057 28
18446 23056 23058 28
18447 23056 23059 28
18448 23056 23060 28
18449 23061 23062 28
18450 23061 23063 28
18451 23061 23064 28
18452 23061 23065 28
18453 23066 23067 28
18454 23066 23068 28
18455 23066 23069 28
18456 23066 23070 28
18457 23071 23072 28
18458 23071 23073 28
18459 23071 23074 28
18460 23071 23075 28
18461 23076 23077 28
18462 23076 23078 28
18463 23076 23079 28
18464 23076 23080 28
18465 23081 23082 28
18466 23081 23083 28
18467 23081 23084 28
18468 23081 23085 28
18469 23086 23087 28
18470 23086 23088 28
18471 23086 23089 28
18472 23086 23090 28
18473 23091 23092 28
18474 23091 23093 28
18475 23091 23094 28
18476 23091 23095 28
18477 23096 23097 28
18478 23096 23098 28
18479 23096 23099 28
18480 23096 23100 28
18481 23101 23102 28
18482 23101 23103 28
18483 23101 23104 28
18484 23101 23105 28
18485 23106 23107 28
18486 23106 23108 28
18487 23106 23109 28
18488 23106 23110 28
18489 23111 23112 28
18490 23111 23113 28
18491 23111 23114 28
18492 23111 23115 28
18493 23116 23117 28
18494 23116 23118 28
18495 23116 23119 28
18496 23116 23120 28
18497 23121 23122 28
18498 23121 23123 28
18499 23121 23124 28
18500 23121 23125 28
18501 23126 23127 28
18502 23126 23128 28
18503 23126 23129 28
18504 23126 23130 28
18505 23131 23132 28
18506 23131 23133 28
18507 23131 23134 28
18508 23131 23135 28
18509 23136 23137 28
18510 23136 23138 28
18511 23136 23139 28
18512 23136 23140 28
18513 23141 23142 28
18514 23141 23143 28
18515 23141 23144 28
18516 23141 23145 28
18517 23146 23147 28
18518 23146 23148 28
18519 23146 23149 28
18520 23146 23150 28
18521 23151 23152 28
18522 23151 23153 28
18523 23151 23154 28
18524 23151 23155 28
18525 23156 23157 28
18526 23156 23158 28
18527 23156 23159 28
18528 23156 23160 28
18529 23161 23162 28
18530 23161 23163 28
18531 23161 23164 28
18532 23161 23165 28
18533 23166 23167 28
18534 23166 23168 28
18535 23166 23169 28
18536 23166 23170 28
18537 23171 23172 28
18538 23171 23173 28
18539 23171 23174 28
18540 23171 23175 28
18541 23176 23177 28
18542 23176 23178 28
18543 23176 23179 28
18544 23176 23180 28
18545 23181 23182 28
18546 23181 23183 28
18547 23181 23184 28
18548 23181 23185 28
18549 23186 23187 28
18550 23186 23188 28
18551 23186 23189 28
18552 23186 23190 28
18553 23191 23192 28
18554 23191 23193 28
18555 23191 23194 28
18556 23191 23195 28
18557 23196 23197 28
18558 23196 23198 28
18559 23196 23199 28
18560 23196 23200 28
18561 23201 23202 28
18562 23201 23203 28
18563 23201 23204 28
18564 23201 23205 28
18565 23206 23207 28
18566 23206 23208 28
18567 23206 23209 28
18568 23206 23210 28
18569 23211 23212 28
18570 23211 23213 28
18571 23211 23214 28
18572 23211 23215 28
18573 23216 23217 28
18574 23216 23218 28
18575 23216 23219 28
18576 23216 23220 28
18577 23221 23222 28
18578 23221 23223 28
18579 23221 23224 28
18580 23221 23225 28
18581 23226 23227 28
18582 23226 23228 28
18583 23226 23229 28
18584 23226 23230 28
18585 23231 23232 28
18586 23231 23233 28
18587 23231 23234 28
18588 23231 23235 28
18589 23236 23237 28
18590 23236 23238 28
18591 23236 23239 28
18592 23236 23240 28
18593 23241 23242 28
18594 23241 23243 28
18595 23241 23244 28
18596 23241 23245 28
18597 23246 23247 28
18598 23246 23248 28
18599 23246 23249 28
18600 23246 23250 28
18601 23251 23252 28
18602 23251 23253 28
18603 23251 23254 28
18604 23251 23255 28
18605 23256 23257 28
18606 23256 23258 28
18607 23256 23259 28
18608 23256 23260 28
18609 23261 23262 28
18610 23261 23263 28
18611 23261 23264 28
18612 23261 23265 28
18613 23266 23267 28
18614 23266 23268 28
18615 23266 23269 28
18616 23266 23270 28
18617 23271 23272 28
18618 23271 23273 28
18619 23271 23274 28
18620 23271 23275 28
18621 23276 23277 28
18622 23276 23278 28
18623 23276 23279 28
18624 23276 23280 28
18625 23281 23282 28
18626 23281 23283 28
18627 23281 23284 28
18628 23281 23285 28
18629 23286 23287 28
18630 23286 23288 28
18631 23286 23289 28
18632 23286 23290 28
18633 23291 23292 28
18634 23291 23293 28
18635 23291 23294 28
18636 23291 23295 28
18637 23296 23297 28
18638 23296 23298 28
18639 23296 23299 28
18640 23296 23300 28
18641 23301 23302 28
18642 23301 23303 28
18643 23301 23304 28
18644 23301 23305 28
18645 23306 23307 28
18646 23306 23308 28
18647 23306 23309 28
18648 23306 23310 28
18649 23311 23312 28
18650 23311 23313 28
18651 23311 23314 28
18652 23311 23315 28
18653 23316 23317 28
18654 23316 23318 28
18655 23316 23319 28
18656 23316 23320 28
18657 23321 23322 28
18658 23321 23323 28
18659 23321 23324 28
18660 23321 23325 28
18661 23326 23327 28
18662 23326 23328 28
18663 23326 23329 28
18664 23326 23330 28
18665 23331 23332 28
18666 23331 23333 28
18667 23331 23334 28
18668 23331 23335 28
18669 23336 23337 28
18670 23336 23338 28
18671 23336 23339 28
18672 23336 23340 28
18673 23341 23342 28
18674 23341 23343 28
18675 23341 23344 28
18676 23341 23345 28
18677 23346 23347 28
18678 23346 23348 28
18679 23346 23349 28
18680 23346 23350 28
18681 23351 23352 28
18682 23351 23353 28
18683 23351 23354 28
18684 23351 23355 28
18685 23356 23357 28
18686 23356 23358 28
18687 23356 23359 28
18688 23356 23360 28
18689 23361 23362 28
18690 23361 23363 28
18691 23361 23364 28
18692 23361 23365 28
18693 23366 23367 28
18694 23366 23368 28
18695 23366 23369 28
18696 23366 23370 28
18697 23371 23372 28
18698 23371 23373 28
18699 23371 23374 28
18700 23371 23375 28
18701 23376 23377 28
18702 23376 23378 28
18703 23376 23379 28
18704 23376 23380 28
18705 23381 23382 28
18706 23381 23383 28
18707 23381 23384 28
18708 23381 23385 28
18709 23386 23387 28
18710 23386 23388 28
18711 23386 23389 28
18712 23386 23390 28
18713 23391 23392 28
18714 23391 23393 28
18715 23391 23394 28
18716 23391 23395 28
18717 23396 23397 28
18718 23396 23398 28
18719 23396 23399 28
18720 23396 23400 28
18721 23401 23402 28
18722 23401 23403 28
18723 23401 23404 28
18724 23401 23405 28
18725 23406 23407 28
18726 23406 23408 28
18727 23406 23409 28
18728 23406 23410 28
18729 23411 23412 28
18730 23411 23413 28
18731 23411 23414 28
18732 23411 23415 28
18733 23416 23417 28
18734 23416 23418 28
18735 23416 23419 28
18736 23416 23420 28
18737 23421 23422 28
18738 23421 23423 28
18739 23421 23424 28
18740 23421 23425 28
18741 23426 23427 28
18742 23426 23428 28
18743 23426 23429 28
18744 23426 23430 28
18745 23431 23432 28
18746 23431 23433 28
18747 23431 23434 28
18748 23431 23435 28
18749 23436 23437 28
18750 23436 23438 28
18751 23436 23439 28
18752 23436 23440 28
18753 23441 23442 28
18754 23441 23443 28
18755 23441 23444 28
18756 23441 23445 28
18757 23446 23447 28
18758 23446 23448 28
18759 23446 23449 28
18760 23446 23450 28
18761 23451 23452 28
18762 23451 23453 28
18763 23451 23454 28
18764 23451 23455 28
18765 23456 23457 28
18766 23456 23458 28
18767 23456 23459 28
18768 23456 23460 28
18769 23461 23462 28
18770 23461 23463 28
18771 23461 23464 28
18772 23461 23465 28
18773 23466 23467 28
18774 23466 23468 28
18775 23466 23469 28
18776 23466 23470 28
18777 23471 23472 28
18778 23471 23473 28
18779 23471 23474 28
18780 23471 23475 28
18781 23476 23477 28
18782 23476 23478 28
18783 23476 23479 28
18784 23476 23480 28
18785 23481 23482 28
18786 23481 23483 28
18787 23481 23484 28
18788 23481 23485 28
18789 23486 23487 28
18790 23486 23488 28
18791 23486 23489 28
18792 23486 23490 28
18793 23491 23492 28
18794 23491 23493 28
18795 23491 23494 28
18796 23491 23495 28
18797 23496 23497 28
18798 23496 23498 28
18799 23496 23499 28
18800 23496 23500 28
18801 23501 23502 28
18802 23501 23503 28
18803 23501 23504 28
18804 23501 23505 28
18805 23506 23507 28
18806 23506 23508 28
18807 23506 23509 28
18808 23506 23510 28
18809 23511 23512 28
18810 23511 23513 28
18811 23511 23514 28
18812 23511 23515 28
18813 23516 23517 28
18814 23516 23518 28
18815 23516 23519 28
18816 23516 23520 28
18817 23521 23522 28
18818 23521 23523 28
18819 23521 23524 28
18820 23521 23525 28
18821 23526 23527 28
18822 23526 23528 28
18823 23526 23529 28
18824 23526 23530 28
18825 23531 23532 28
18826 23531 23533 28
18827 23531 23534 28
18828 23531 23535 28
18829 23536 23537 28
18830 23536 23538 28
18831 23536 23539 28
18832 23536 23540 28
18833 23541 23542 28
18834 23541 23543 28
18835 23541 23544 28
18836 23541 23545 28
18837 23546 23547 28
18838 23546 23548 28
18839 23546 23549 28
18840 23546 23550 28
18841 23551 23552 28
18842 23551 23553 28
18843 23551 23554 28
18844 23551 23555 28
18845 23556 23557 28
18846 23556 23558 28
18847 23556 23559 28
18848 23556 23560 28
18849 23561 23562 28
18850 23561 23563 28
18851 23561 23564 28
18852 23561 23565 28
18853 23566 23567 28
18854 23566 23568 28
18855 23566 23569 28
18856 23566 23570 28
18857 23571 23572 28
18858 23571 23573 28
18859 23571 23574 28
18860 23571 23575 28
18861 23576 23577 28
18862 23576 23578 28
18863 23576 23579 28
18864 23576 23580 28
18865 23581 23582 28
18866 23581 23583 28
18867 23581 23584 28
18868 23581 23585 28
18869 23586 23587 28
18870 23586 23588 28
18871 23586 23589 28
18872 23586 23590 28
18873 23591 23592 28
18874 23591 23593 28
18875 23591 23594 28
18876 23591 23595 28
18877 23596 23597 28
18878 23596 23598 28
18879 23596 23599 28
18880 23596 23600 28
18881 23601 23602 28
18882 23601 23603 28
18883 23601 23604 28
18884 23601 23605 28
18885 23606 23607 28
18886 23606 23608 28
18887 23606 23609 28
18888 23606 23610 28
18889 23611 23612 28
18890 23611 23613 28
18891 23611 23614 28
18892 23611 23615 28
18893 23616 23617 28
18894 23616 23618 28
18895 23616 23619 28
18896 23616 23620 28
18897 23621 23622 28
18898 23621 23623 28
18899 23621 23624 28
18900 23621 23625 28
18901 23626 23627 28
18902 23626 23628 28
18903 23626 23629 28
18904 23626 23630 28
18905 23631 23632 28
18906 23631 23633 28
18907 23631 23634 28
18908 23631 23635 28
18909 23636 23637 28
18910 23636 23638 28
18911 23636 23639 28
18912 23636 23640 28
18913 23641 23642 28
18914 23641 23643 28
18915 23641 23644 28
18916 23641 23645 28
18917 23646 23647 28
18918 23646 23648 28
18919 23646 23649 28
18920 23646 23650 28
18921 23651 23652 28
18922 23651 23653 28
18923 23651 23654 28
18924 23651 23655 28
18925 23656 23657 28
18926 23656 23658 28
18927 23656 23659 28
18928 23656 23660 28
18929 23661 23662 28
18930 23661 23663 28
18931 23661 23664 28
18932 23661 23665 28
18933 23666 23667 28
18934 23666 23668 28
18935 23666 23669 28
18936 23666 23670 28
18937 23671 23672 28
18938 23671 23673 28
18939 23671 23674 28
18940 23671 23675 28
18941 23676 23677 28
18942 23676 23678 28
18943 23676 23679 28
18944 23676 23680 28
18945 23681 23682 28
18946 23681 23683 28
18947 23681 23684 28
18948 23681 23685 28
18949 23686 23687 28
18950 23686 23688 28
18951 23686 23689 28
18952 23686 23690 28
18953 23691 23692 28
18954 23691 23693 28
18955 23691 23694 28
18956 23691 23695 28
18957 23696 23697 28
18958 23696 23698 28
18959 23696 23699 28
18960 23696 23700 28
18961 23701 23702 28
18962 23701 23703 28
18963 23701 23704 28
18964 23701 23705 28
18965 23706 23707 28
18966 23706 23708 28
18967 23706 23709 28
18968 23706 23710 28
18969 23711 23712 28
18970 23711 23713 28
18971 23711 23714 28
18972 23711 23715 28
18973 23716 23717 28
18974 23716 23718 28
18975 23716 23719 28
18976 23716 23720 28
18977 23721 23722 28
18978 23721 23723 28
18979 23721 23724 28
18980 23721 23725 28
18981 23726 23727 28
18982 23726 23728 28
18983 23726 23729 28
18984 23726 23730 28
18985 23731 23732 28
18986 23731 23733 28
18987 23731 23734 28
18988 23731 23735 28
18989 23736 23737 28
18990 23736 23738 28
18991 23736 23739 28
18992 23736 23740 28
18993 23741 23742 28
18994 23741 23743 28
18995 23741 23744 28
18996 23741 23745 28
18997 23746 23747 28
18998 23746 23748 28
18999 23746 23749 28
19000 23746 23750 28
19001 23751 23752 28
19002 23751 23753 28
19003 23751 23754 28
19004 23751 23755 28
19005 23756 23757 28
19006 23756 23758 28
19007 23756 23759 28
19008 23756 23760 28
19009 23761 23762 28
19010 23761 23763 28
19011 23761 23764 28
19012 23761 23765 28
19013 23766 23767 28
19014 23766 23768 28
19015 23766 23769 28
19016 23766 23770 28
19017 23771 23772 28
19018 23771 23773 28
19019 23771 23774 28
19020 23771 23775 28
19021 23776 23777 28
19022 23776 23778 28
19023 23776 23779 28
19024 23776 23780 28
19025 23781 23782 28
19026 23781 23783 28
19027 23781 23784 28
19028 23781 23785 28
19029 23786 23787 28
19030 23786 23788 28
19031 23786 23789 28
19032 23786 23790 28
19033 23791 23792 28
19034 23791 23793 28
19035 23791 23794 28
19036 23791 23795 28
19037 23796 23797 28
19038 23796 23798 28
19039 23796 23799 28
19040 23796 23800 28
19041 23801 23802 28
19042 23801 23803 28
19043 23801 23804 28
19044 23801 23805 28
19045 23806 23807 28
19046 23806 23808 28
19047 23806 23809 28
19048 23806 23810 28
19049 23811 23812 28
19050 23811 23813 28
19051 23811 23814 28
19052 23811 23815 28
19053 23816 23817 28
19054 23816 23818 28
19055 23816 23819 28
19056 23816 23820 28
19057 23821 23822 28
19058 23821 23823 28
19059 23821 23824 28
19060 23821 23825 28
19061 23826 23827 28
19062 23826 23828 28
19063 23826 23829 28
19064 23826 23830 28
19065 23831 23832 28
19066 23831 23833 28
19067 23831 23834 28
19068 23831 23835 28
19069 23836 23837 28
19070 23836 23838 28
19071 23836 23839 28
19072 23836 23840 28
19073 23841 23842 28
19074 23841 23843 28
19075 23841 23844 28
19076 23841 23845 28
19077 23846 23847 28
19078 23846 23848 28
19079 23846 23849 28
19080 23846 23850 28
19081 23851 23852 28
19082 23851 23853 28
19083 23851 23854 28
19084 23851 23855 28
19085 23856 23857 28
19086 23856 23858 28
19087 23856 23859 28
19088 23856 23860 28
19089 23861 23862 28
19090 23861 23863 28
19091 23861 23864 28
19092 23861 23865 28
19093 23866 23867 28
19094 23866 23868 28
19095 23866 23869 28
19096 23866 23870 28
19097 23871 23872 28
19098 23871 23873 28
19099 23871 23874 28
19100 23871 23875 28
19101 23876 23877 28
19102 23876 23878 28
19103 23876 23879 28
19104 23876 23880 28
19105 23881 23882 28
19106 23881 23883 28
19107 23881 23884 28
19108 23881 23885 28
19109 23886 23887 28
19110 23886 23888 28
19111 23886 23889 28
19112 23886 23890 28
19113 23891 23892 28
19114 23891 23893 28
19115 23891 23894 28
19116 23891 23895 28
19117 23896 23897 28
19118 23896 23898 28
19119 23896 23899 28
19120 23896 23900 28
19121 23901 23902 28
19122 23901 23903 28
19123 23901 23904 28
19124 23901 23905 28
19125 23906 23907 28
19126 23906 23908 28
19127 23906 23909 28
19128 23906 23910 28
19129 23911 23912 28
19130 23911 23913 28
19131 23911 23914 28
19132 23911 23915 28
19133 23916 23917 28
19134 23916 23918 28
19135 23916 23919 28
19136 23916 23920 28
19137 23921 23922 28
19138 23921 23923 28
19139 23921 23924 28
19140 23921 23925 28
19141 23926 23927 28
19142 23926 23928 28
19143 23926 23929 28
19144 23926 23930 28
19145 23931 23932 28
19146 23931 23933 28
19147 23931 23934 28
19148 23931 23935 28
19149 23936 23937 28
19150 23936 23938 28
19151 23936 23939 28
19152 23936 23940 28
19153 23941 23942 28
19154 23941 23943 28
19155 23941 23944 28
19156 23941 23945 28
19157 23946 23947 28
19158 23946 23948 28
19159 23946 23949 28
19160 23946 23950 28
19161 23951 23952 28
19162 23951 23953 28
19163 23951 23954 28
19164 23951 23955 28
19165 23956 23957 28
19166 23956 23958 28
19167 23956 23959 28
19168 23956 23960 28
19169 23961 23962 28
19170 23961 23963 28
19171 23961 23964 28
19172 23961 23965 28
19173 23966 23967 28
19174 23966 23968 28
19175 23966 23969 28
19176 23966 23970 28
19177 23971 23972 28
19178 23971 23973 28
19179 23971 23974 28
19180 23971 23975 28
19181 23976 23977 28
19182 23976 23978 28
19183 23976 23979 28
19184 23976 23980 28
19185 23981 23982 28
19186 23981 23983 28
19187 23981 23984 28
19188 23981 23985 28
19189 23986 23987 28
19190 23986 23988 28
19191 23986 23989 28
19192 23986 23990 28
19193 23991 23992 28
19194 23991 23993 28
19195 23991 23994 28
19196 23991 23995 28
19197 23996 23997 28
19198 23996 23998 28
19199 23996 23999 28
19200 23996 24000 28
19201 24001 24002 28
19202 24001 24003 28
19203 24001 24004 28
19204 24001 24005 28
19205 24006 24007 28
19206 24006 24008 28
19207 24006 24009 28
19208 24006 24010 28
19209 24011 24012 28
19210 24011 24013 28
19211 24011 24014 28
19212 24011 24015 28
19213 24016 24017 28
19214 24016 24018 28
19215 24016 24019 28
19216 24016 24020 28
19217 24021 24022 28
19218 24021 24023 28
19219 24021 24024 28
19220 24021 24025 28
19221 24026 24027 28
19222 24026 24028 28
19223 24026 24029 28
19224 24026 24030 28
19225 24031 24032 28
19226 24031 24033 28
19227 24031 24034 28
19228 24031 24035 28
19229 24036 24037 28
19230 24036 24038 28
19231 24036 24039 28
19232 24036 24040 28
19233 24041 24042 28
19234 24041 24043 28
19235 24041 24044 28
19236 24041 24045 28
19237 24046 24047 28
19238 24046 24048 28
19239 24046 24049 28
19240 24046 24050 28
19241 24051 24052 28
19242 24051 24053 28
19243 24051 24054 28
19244 24051 24055 28
19245 24056 24057 28
19246 24056 24058 28
19247 24056 24059 28
19248 24056 24060 28
19249 24061 24062 28
19250 24061 24063 28
19251 24061 24064 28
19252 24061 24065 28
19253 24066 24067 28
19254 24066 24068 28
19255 24066 24069 28
19256 24066 24070 28
19257 24071 24072 28
19258 24071 24073 28
19259 24071 24074 28
19260 24071 24075 28
19261 24076 24077 28
19262 24076 24078 28
19263 24076 24079 28
19264 24076 24080 28
19265 24081 24082 28
19266 24081 24083 28
19267 24081 24084 28
19268 24081 24085 28
19269 24086 24087 28
19270 24086 24088 28
19271 24086 24089 28
19272 24086 24090 28
19273 24091 24092 28
19274 24091 24093 28
19275 24091 24094 28
19276 24091 24095 28
19277 24096 24097 28
19278 24096 24098 28
19279 24096 24099 28
19280 24096 24100 28
19281 24101 24102 28
19282 24101 24103 28
19283 24101 24104 28
19284 24101 24105 28
19285 24106 24107 28
19286 24106 24108 28
19287 24106 24109 28
19288 24106 24110 28
19289 24111 24112 28
19290 24111 24113 28
19291 24111 24114 28
19292 24111 24115 28
19293 24116 24117 28
19294 24116 24118 28
19295 24116 24119 28
19296 24116 24120 28
19297 24121 24122 28
19298 24121 24123 28
19299 24121 24124 28
19300 24121 24125 28
19301 24126 24127 28
19302 24126 24128 28
19303 24126 24129 28
19304 24126 24130 28
19305 24131 24132 28
19306 24131 24133 28
19307 24131 24134 28
19308 24131 24135 28
19309 24136 24137 28
19310 24136 24138 28
19311 24136 24139 28
19312 24136 24140 28
19313 24141 24142 28
19314 24141 24143 28
19315 24141 24144 28
19316 24141 24145 28
19317 24146 24147 28
19318 24146 24148 28
19319 24146 24149 28
19320 24146 24150 28
19321 24151 24152 28
19322 24151 24153 28
19323 24151 24154 28
19324 24151 24155 28
19325 24156 24157 28
19326 24156 24158 28
19327 24156 24159 28
19328 24156 24160 28
19329 24161 24162 28
19330 24161 24163 28
19331 24161 24164 28
19332 24161 24165 28
19333 24166 24167 28
19334 24166 24168 28
19335 24166 24169 28
19336 24166 24170 28
19337 24171 24172 28
19338 24171 24173 28
19339 24171 24174 28
19340 24171 24175 28
19341 24176 24177 28
19342 24176 24178 28
19343 24176 24179 28
19344 24176 24180 28
19345 24181 24182 28
19346 24181 24183 28
19347 24181 24184 28
19348 24181 24185 28
19349 24186 24187 28
19350 24186 24188 28
19351 24186 24189 28
19352 24186 24190 28
19353 24191 24192 28
19354 24191 24193 28
19355 24191 24194 28
19356 24191 24195 28
19357 24196 24197 28
19358 24196 24198 28
19359 24196 24199 28
19360 24196 24200 28
19361 24201 24202 28
19362 24201 24203 28
19363 24201 24204 28
19364 24201 24205 28
19365 24206 24207 28
19366 24206 24208 28
19367 24206 24209 28
19368 24206 24210 28
19369 24211 24212 28
19370 24211 24213 28
19371 24211 24214 28
19372 24211 24215 28
19373 24216 24217 28
19374 24216 24218 28
19375 24216 24219 28
19376 24216 24220 28
19377 24221 24222 28
19378 24221 24223 28
19379 24221 24224 28
19380 24221 24225 28
19381 24226 24227 28
19382 24226 24228 28
19383 24226 24229 28
19384 24226 24230 28
19385 24231 24232 28
19386 24231 24233 28
19387 24231 24234 28
19388 24231 24235 28
19389 24236 24237 28
19390 24236 24238 28
19391 24236 24239 28
19392 24236 24240 28
19393 24241 24242 28
19394 24241 24243 28
19395 24241 24244 28
19396 24241 24245 28
19397 24246 24247 28
19398 24246 24248 28
19399 24246 24249 28
19400 24246 24250 28
19401 24251 24252 28
19402 24251 24253 28
19403 24251 24254 28
19404 24251 24255 28
19405 24256 24257 28
19406 24256 24258 28
19407 24256 24259 28
19408 24256 24260 28
19409 24261 24262 28
19410 24261 24263 28
19411 24261 24264 28
19412 24261 24265 28
19413 24266 24267 28
19414 24266 24268 28
19415 24266 24269 28
19416 24266 24270 28
19417 24271 24272 28
19418 24271 24273 28
19419 24271 24274 28
19420 24271 24275 28
19421 24276 24277 28
19422 24276 24278 28
19423 24276 24279 28
19424 24276 24280 28
19425 24281 24282 28
19426 24281 24283 28
19427 24281 24284 28
19428 24281 24285 28
19429 24286 24287 28
19430 24286 24288 28
19431 24286 24289 28
19432 24286 24290 28
19433 24291 24292 28
19434 24291 24293 28
19435 24291 24294 28
19436 24291 24295 28
19437 24296 24297 28
19438 24296 24298 28
19439 24296 24299 28
19440 24296 24300 28
19441 24301 24302 28
19442 24301 24303 28
19443 24301 24304 28
19444 24301 24305 28
19445 24306 24307 28
19446 24306 24308 28
19447 24306 24309 28
19448 24306 24310 28
19449 24311 24312 28
19450 24311 24313 28
19451 24311 24314 28
19452 24311 24315 28
19453 24316 24317 28
19454 24316 24318 28
19455 24316 24319 28
19456 24316 24320 28
19457 24321 24322 28
19458 24321 24323 28
19459 24321 24324 28
19460 24321 24325 28
19461 24326 24327 28
19462 24326 24328 28
19463 24326 24329 28
19464 24326 24330 28
19465 24331 24332 28
19466 24331 24333 28
19467 24331 24334 28
19468 24331 24335 28
19469 24336 24337 28
19470 24336 24338 28
19471 24336 24339 28
19472 24336 24340 28
19473 24341 24342 28
19474 24341 24343 28
19475 24341 24344 28
19476 24341 24345 28
19477 24346 24347 28
19478 24346 24348 28
19479 24346 24349 28
19480 24346 24350 28
19481 24351 24352 28
19482 24351 24353 28
19483 24351 24354 28
19484 24351 24355 28
19485 24356 24357 28
19486 24356 24358 28
19487 24356 24359 28
19488 24356 24360 28
19489 24361 24362 28
19490 24361 24363 28
19491 24361 24364 28
19492 24361 24365 28
19493 24366 24367 28
19494 24366 24368 28
19495 24366 24369 28
19496 24366 24370 28
19497 24371 24372 28
19498 24371 24373 28
19499 24371 24374 28
19500 24371 24375 28
19501 24376 24377 28
19502 24376 24378 28
19503 24376 24379 28
19504 24376 24380 28
19505 24381 24382 28
19506 24381 24383 28
19507 24381 24384 28
19508 24381 24385 28
19509 24386 24387 28
19510 24386 24388 28
19511 24386 24389 28
19512 24386 24390 28
19513 24391 24392 28
19514 24391 24393 28
19515 24391 24394 28
19516 24391 24395 28
19517 24396 24397 28
19518 24396 24398 28
19519 24396 24399 28
19520 24396 24400 28
19521 24401 24402 28
19522 24401 24403 28
19523 24401 24404 28
19524 24401 24405 28
19525 24406 24407 28
19526 24406 24408 28
19527 24406 24409 28
19528 24406 24410 28
19529 24411 24412 28
19530 24411 24413 28
19531 24411 24414 28
19532 24411 24415 28
19533 24416 24417 28
19534 24416 24418 28
19535 24416 24419 28
19536 24416 24420 28
19537 24421 24422 28
19538 24421 24423 28
19539 24421 24424 28
19540 24421 24425 28
19541 24426 24427 28
19542 24426 24428 28
19543 24426 24429 28
19544 24426 24430 28
19545 24431 24432 28
19546 24431 24433 28
19547 24431 24434 28
19548 24431 24435 28
19549 24436 24437 28
19550 24436 24438 28
19551 24436 24439 28
19552 24436 24440 28
19553 24441 24442 28
19554 24441 24443 28
19555 24441 24444 28
19556 24441 24445 28
19557 24446 24447 28
19558 24446 24448 28
19559 24446 24449 28
19560 24446 24450 28
19561 24451 24452 28
19562 24451 24453 28
19563 24451 24454 28
19564 24451 24455 28
19565 24456 24457 28
19566 24456 24458 28
19567 24456 24459 28
19568 24456 24460 28
19569 24461 24462 28
19570 24461 24463 28
19571 24461 24464 28
19572 24461 24465 28
19573 24466 24467 28
19574 24466 24468 28
19575 24466 24469 28
19576 24466 24470 28
19577 24471 24472 28
19578 24471 24473 28
19579 24471 24474 28
19580 24471 24475 28
19581 24476 24477 28
19582 24476 24478 28
19583 24476 24479 28
19584 24476 24480 28
19585 24481 24482 28
19586 24481 24483 28
19587 24481 24484 28
19588 24481 24485 28
19589 24486 24487 28
19590 24486 24488 28
19591 24486 24489 28
19592 24486 24490 28
19593 24491 24492 28
19594 24491 24493 28
19595 24491 24494 28
19596 24491 24495 28
19597 24496 24497 28
19598 24496 24498 28
19599 24496 24499 28
19600 24496 24500 28
19601 24501 24502 28
19602 24501 24503 28
19603 24501 24504 28
19604 24501 24505 28
19605 24506 24507 28
19606 24506 24508 28
19607 24506 24509 28
19608 24506 24510 28
19609 24511 24512 28
19610 24511 24513 28
19611 24511 24514 28
19612 24511 24515 28
19613 24516 24517 28
19614 24516 24518 28
19615 24516 24519 28
19616 24516 24520 28
19617 24521 24522 28
19618 24521 24523 28
19619 24521 24524 28
19620 24521 24525 28
19621 24526 24527 28
19622 24526 24528 28
19623 24526 24529 28
19624 24526 24530 28
19625 24531 24532 28
19626 24531 24533 28
19627 24531 24534 28
19628 24531 24535 28
19629 24536 24537 28
19630 24536 24538 28
19631 24536 24539 28
19632 24536 24540 28
19633 24541 24542 28
19634 24541 24543 28
19635 24541 24544 28
19636 24541 24545 28
19637 24546 24547 28
19638 24546 24548 28
19639 24546 24549 28
19640 24546 24550 28
19641 24551 24552 28
19642 24551 24553 28
19643 24551 24554 28
19644 24551 24555 28
19645 24556 24557 28
19646 24556 24558 28
19647 24556 24559 28
19648 24556 24560 28
19649 24561 24562 28
19650 24561 24563 28
19651 24561 24564 28
19652 24561 24565 28
19653 24566 24567 28
19654 24566 24568 28
19655 24566 24569 28
19656 24566 24570 28
19657 24571 24572 28
19658 24571 24573 28
19659 24571 24574 28
19660 24571 24575 28
19661 24576 24577 28
19662 24576 24578 28
19663 24576 24579 28
19664 24576 24580 28
19665 24581 24582 28
19666 24581 24583 28
19667 24581 24584 28
19668 24581 24585 28
19669 24586 24587 28
19670 24586 24588 28
19671 24586 24589 28
19672 24586 24590 28
19673 24591 24592 28
19674 24591 24593 28
19675 24591 24594 28
19676 24591 24595 28
19677 24596 24597 28
19678 24596 24598 28
19679 24596 24599 28
19680 24596 24600 28
19681 24601 24602 28
19682 24601 24603 28
19683 24601 24604 28
19684 24601 24605 28
19685 24606 24607 28
19686 24606 24608 28
19687 24606 24609 28
19688 24606 24610 28
19689 24611 24612 28
19690 24611 24613 28
19691 24611 24614 28
19692 24611 24615 28
19693 24616 24617 28
19694 24616 24618 28
19695 24616 24619 28
19696 24616 24620 28
19697 24621 24622 28
19698 24621 24623 28
19699 24621 24624 28
19700 24621 24625 28
19701 24626 24627 28
19702 24626 24628 28
19703 24626 24629 28
19704 24626 24630 28
19705 24631 24632 28
19706 24631 24633 28
19707 24631 24634 28
19708 24631 24635 28
19709 24636 24637 28
19710 24636 24638 28
19711 24636 24639 28
19712 24636 24640 28
19713 24641 24642 28
19714 24641 24643 28
19715 24641 24644 28
19716 24641 24645 28
19717 24646 24647 28
19718 24646 24648 28
19719 24646 24649 28
19720 24646 24650 28
19721 24651 24652 28
19722 24651 24653 28
19723 24651 24654 28
19724 24651 24655 28
19725 24656 24657 28
19726 24656 24658 28
19727 24656 24659 28
19728 24656 24660 28
19729 24661 24662 28
19730 24661 24663 28
19731 24661 24664 28
19732 24661 24665 28
19733 24666 24667 28
19734 24666 24668 28
19735 24666 24669 28
19736 24666 24670 28
19737 24671 24672 28
19738 24671 24673 28
19739 24671 24674 28
19740 24671 24675 28
19741 24676 24677 28
19742 24676 24678 28
19743 24676 24679 28
19744 24676 24680 28
19745 24681 24682 28
19746 24681 24683 28
19747 24681 24684 28
19748 24681 24685 28
19749 24686 24687 28
19750 24686 24688 28
19751 24686 24689 28
19752 24686 24690 28
19753 24691 24692 28
19754 24691 24693 28
19755 24691 24694 28
19756 24691 24695 28
19757 24696 24697 28
19758 24696 24698 28
19759 24696 24699 28
19760 24696 24700 28
19761 24701 24702 28
19762 24701 24703 28
19763 24701 24704 28
19764 24701 24705 28
19765 24706 24707 28
19766 24706 24708 28
19767 24706 24709 28
19768 24706 24710 28
19769 24711 24712 28
19770 24711 24713 28
19771 24711 24714 28
19772 24711 24715 28
19773 24716 24717 28
19774 24716 24718 28
19775 24716 24719 28
19776 24716 24720 28
19777 24721 24722 28
19778 24721 24723 28
19779 24721 24724 28
19780 24721 24725 28
19781 24726 24727 28
19782 24726 24728 28
19783 24726 24729 28
19784 24726 24730 28
19785 24731 24732 28
19786 24731 24733 28
19787 24731 24734 28
19788 24731 24735 28
19789 24736 24737 28
19790 24736 24738 28
19791 24736 24739 28
19792 24736 24740 28
19793 24741 24742 28
19794 24741 24743 28
19795 24741 24744 28
19796 24741 24745 28
19797 24746 24747 28
19798 24746 24748 28
19799 24746 24749 28
19800 24746 24750 28
19801 24751 24752 28
19802 24751 24753 28
19803 24751 24754 28
19804 24751 24755 28
19805 24756 24757 28
19806 24756 24758 28
19807 24756 24759 28
19808 24756 24760 28
19809 24761 24762 28
19810 24761 24763 28
19811 24761 24764 28
19812 24761 24765 28
19813 24766 24767 28
19814 24766 24768 28
19815 24766 24769 28
19816 24766 24770 28
19817 24771 24772 28
19818 24771 24773 28
19819 24771 24774 28
19820 24771 24775 28
19821 24776 24777 28
19822 24776 24778 28
19823 24776 24779 28
19824 24776 24780 28
19825 24781 24782 28
19826 24781 24783 28
19827 24781 24784 28
19828 24781 24785 28
19829 24786 24787 28
19830 24786 24788 28
19831 24786 24789 28
19832 24786 24790 28
19833 24791 24792 28
19834 24791 24793 28
19835 24791 24794 28
19836 24791 24795 28
19837 24796 24797 28
19838 24796 24798 28
19839 24796 24799 28
19840 24796 24800 28
19841 24801 24802 28
19842 24801 24803 28
19843 24801 24804 28
19844 24801 24805 28
19845 24806 24807 28
19846 24806 24808 28
19847 24806 24809 28
19848 24806 24810 28
19849 24811 24812 28
19850 24811 24813 28
19851 24811 24814 28
19852 24811 24815 28
19853 24816 24817 28
19854 24816 24818 28
19855 24816 24819 28
19856 24816 24820 28
19857 24821 24822 28
19858 24821 24823 28
19859 24821 24824 28
19860 24821 24825 28
19861 24826 24827 28
19862 24826 24828 28
19863 24826 24829 28
19864 24826 24830 28
19865 24831 24832 28
19866 24831 24833 28
19867 24831 24834 28
19868 24831 24835 28
19869 24836 24837 28
19870 24836 24838 28
19871 24836 24839 28
19872 24836 24840 28
19873 24841 24842 28
19874 24841 24843 28
19875 24841 24844 28
19876 24841 24845 28
19877 24846 24847 28
19878 24846 24848 28
19879 24846 24849 28
19880 24846 24850 28
19881 24851 24852 28
19882 24851 24853 28
19883 24851 24854 28
19884 24851 24855 28
19885 24856 24857 28
19886 24856 24858 28
19887 24856 24859 28
19888 24856 24860 28
19889 24861 24862 28
19890 24861 24863 28
19891 24861 24864 28
19892 24861 24865 28
19893 24866 24867 28
19894 24866 24868 28
19895 24866 24869 28
19896 24866 24870 28
19897 24871 24872 28
19898 24871 24873 28
19899 24871 24874 28
19900 24871 24875 28
19901 24876 24877 28
19902 24876 24878 28
19903 24876 24879 28
19904 24876 24880 28
19905 24881 24882 28
19906 24881 24883 28
19907 24881 24884 28
19908 24881 24885 28
19909 24886 24887 28
19910 24886 24888 28
19911 24886 24889 28
19912 24886 24890 28
19913 24891 24892 28
19914 24891 24893 28
19915 24891 24894 28
19916 24891 24895 28
19917 24896 24897 28
19918 24896 24898 28
19919 24896 24899 28
19920 24896 24900 28
19921 24901 24902 28
19922 24901 24903 28
19923 24901 24904 28
19924 24901 24905 28
19925 24906 24907 28
19926 24906 24908 28
19927 24906 24909 28
19928 24906 24910 28
19929 24911 24912 28
19930 24911 24913 28
19931 24911 24914 28
19932 24911 24915 28
19933 24916 24917 28
19934 24916 24918 28
19935 24916 24919 28
19936 24916 24920 28
19937 24921 24922 28
19938 24921 24923 28
19939 24921 24924 28
19940 24921 24925 28
19941 24926 24927 28
19942 24926 24928 28
19943 24926 24929 28
19944 24926 24930 28
19945 24931 24932 28
19946 24931 24933 28
19947 24931 24934 28
19948 24931 24935 28
19949 24936 24937 28
19950 24936 24938 28
19951 24936 24939 28
19952 24936 24940 28
19953 24941 24942 28
19954 24941 24943 28
19955 24941 24944 28
19956 24941 24945 28
19957 24946 24947 28
19958 24946 24948 28
19959 24946 24949 28
19960 24946 24950 28
19961 24951 24952 28
19962 24951 24953 28
19963 24951 24954 28
19964 24951 24955 28
19965 24956 24957 28
19966 24956 24958 28
19967 24956 24959 28
19968 24956 24960 28
19969 24961 24962 28
19970 24961 24963 28
19971 24961 24964 28
19972 24961 24965 28
19973 24966 24967 28
19974 24966 24968 28
19975 24966 24969 28
19976 24966 24970 28
19977 24971 24972 28
19978 24971 24973 28
19979 24971 24974 28
19980 24971 24975 28
19981 24976 24977 28
19982 24976 24978 28
19983 24976 24979 28
19984 24976 24980 28
19985 24981 24982 28
19986 24981 24983 28
19987 24981 24984 28
19988 24981 24985 28
19989 24986 24987 28
19990 24986 24988 28
19991 24986 24989 28
19992 24986 24990 28
19993 24991 24992 28
19994 24991 24993 28
19995 24991 24994 28
19996 24991 24995 28
19997 24996 24997 28
19998 24996 24998 28
19999 24996 24999 28
20000 24996 25000 28
20001 25001 25002 28
20002 25001 25003 28
20003 25001 25004 28
20004 25001 25005 28
20005 25006 25007 28
20006 25006 25008 28
20007 25006 25009 28
20008 25006 25010 28
20009 25011 25012 28
20010 25011 25013 28
20011 25011 25014 28
20012 25011 25015 28
20013 25016 25017 28
20014 25016 25018 28
20015 25016 25019 28
20016 25016 25020 28
20017 25021 25022 28
20018 25021 25023 28
20019 25021 25024 28
20020 25021 25025 28
20021 25026 25027 28
20022 25026 25028 28
20023 25026 25029 28
20024 25026 25030 28
20025 25031 25032 28
20026 25031 25033 28
20027 25031 25034 28
20028 25031 25035 28
20029 25036 25037 28
20030 25036 25038 28
20031 25036 25039 28
20032 25036 25040 28
20033 25041 25042 28
20034 25041 25043 28
20035 25041 25044 28
20036 25041 25045 28
20037 25046 25047 28
20038 25046 25048 28
20039 25046 25049 28
20040 25046 25050 28
20041 25051 25052 28
20042 25051 25053 28
20043 25051 25054 28
20044 25051 25055 28
20045 25056 25057 28
20046 25056 25058 28
20047 25056 25059 28
20048 25056 25060 28
20049 25061 25062 28
20050 25061 25063 28
20051 25061 25064 28
20052 25061 25065 28
20053 25066 25067 28
20054 25066 25068 28
20055 25066 25069 28
20056 25066 25070 28
20057 25071 25072 28
20058 25071 25073 28
20059 25071 25074 28
20060 25071 25075 28
20061 25076 25077 28
20062 25076 25078 28
20063 25076 25079 28
20064 25076 25080 28
20065 25081 25082 28
20066 25081 25083 28
20067 25081 25084 28
20068 25081 25085 28
20069 25086 25087 28
20070 25086 25088 28
20071 25086 25089 28
20072 25086 25090 28
20073 25091 25092 28
20074 25091 25093 28
20075 25091 25094 28
20076 25091 25095 28
20077 25096 25097 28
20078 25096 25098 28
20079 25096 25099 28
20080 25096 25100 28
20081 25101 25102 28
20082 25101 25103 28
20083 25101 25104 28
20084 25101 25105 28
20085 25106 25107 28
20086 25106 25108 28
20087 25106 25109 28
20088 25106 25110 28
20089 25111 25112 28
20090 25111 25113 28
20091 25111 25114 28
20092 25111 25115 28
20093 25116 25117 28
20094 25116 25118 28
20095 25116 25119 28
20096 25116 25120 28
20097 25121 25122 28
20098 25121 25123 28
20099 25121 25124 28
20100 25121 25125 28
20101 25126 25127 28
20102 25126 25128 28
20103 25126 25129 28
20104 25126 25130 28
20105 25131 25132 28
20106 25131 25133 28
20107 25131 25134 28
20108 25131 25135 28
20109 25136 25137 28
20110 25136 25138 28
20111 25136 25139 28
20112 25136 25140 28
20113 25141 25142 28
20114 25141 25143 28
20115 25141 25144 28
20116 25141 25145 28
20117 25146 25147 28
20118 25146 25148 28
20119 25146 25149 28
20120 25146 25150 28
20121 25151 25152 28
20122 25151 25153 28
20123 25151 25154 28
20124 25151 25155 28
20125 25156 25157 28
20126 25156 25158 28
20127 25156 25159 28
20128 25156 25160 28
20129 25161 25162 28
20130 25161 25163 28
20131 25161 25164 28
20132 25161 25165 28
20133 25166 25167 28
20134 25166 25168 28
20135 25166 25169 28
20136 25166 25170 28
20137 25171 25172 28
20138 25171 25173 28
20139 25171 25174 28
20140 25171 25175 28
20141 25176 25177 28
20142 25176 25178 28
20143 25176 25179 28
20144 25176 25180 28
20145 25181 25182 28
20146 25181 25183 28
20147 25181 25184 28
20148 25181 25185 28
20149 25186 25187 28
20150 25186 25188 28
20151 25186 25189 28
20152 25186 25190 28
20153 25191 25192 28
20154 25191 25193 28
20155 25191 25194 28
20156 25191 25195 28
20157 25196 25197 28
20158 25196 25198 28
20159 25196 25199 28
20160 25196 25200 28
20161 25201 25202 28
20162 25201 25203 28
20163 25201 25204 28
20164 25201 25205 28
20165 25206 25207 28
20166 25206 25208 28
20167 25206 25209 28
20168 25206 25210 28
20169 25211 25212 28
20170 25211 25213 28
20171 25211 25214 28
20172 25211 25215 28
20173 25216 25217 28
20174 25216 25218 28
20175 25216 25219 28
20176 25216 25220 28
20177 25221 25222 28
20178 25221 25223 28
20179 25221 25224 28
20180 25221 25225 28
20181 25226 25227 28
20182 25226 25228 28
20183 25226 25229 28
20184 25226 25230 28
20185 25231 25232 28
20186 25231 25233 28
20187 25231 25234 28
20188 25231 25235 28
20189 25236 25237 28
20190 25236 25238 28
20191 25236 25239 28
20192 25236 25240 28
20193 25241 25242 28
20194 25241 25243 28
20195 25241 25244 28
20196 25241 25245 28
20197 25246 25247 28
20198 25246 25248 28
20199 25246 25249 28
20200 25246 25250 28
20201 25251 25252 28
20202 25251 25253 28
20203 25251 25254 28
20204 25251 25255 28
20205 25256 25257 28
20206 25256 25258 28
20207 25256 25259 28
20208 25256 25260 28
20209 25261 25262 28
20210 25261 25263 28
20211 25261 25264 28
20212 25261 25265 28
20213 25266 25267 28
20214 25266 25268 28
20215 25266 25269 28
20216 25266 25270 28
20217 25271 25272 28
20218 25271 25273 28
20219 25271 25274 28
20220 25271 25275 28
20221 25276 25277 28
20222 25276 25278 28
20223 25276 25279 28
20224 25276 25280 28
20225 25281 25282 28
20226 25281 25283 28
20227 25281 25284 28
20228 25281 25285 28
20229 25286 25287 28
20230 25286 25288 28
20231 25286 25289 28
20232 25286 25290 28
20233 25291 25292 28
20234 25291 25293 28
20235 25291 25294 28
20236 25291 25295 28
20237 25296 25297 28
20238 25296 25298 28
20239 25296 25299 28
20240 25296 25300 28
20241 25301 25302 28
20242 25301 25303 28
20243 25301 25304 28
20244 25301 25305 28
20245 25306 25307 28
20246 25306 25308 28
20247 25306 25309 28
20248 25306 25310 28
20249 25311 25312 28
20250 25311 25313 28
20251 25311 25314 28
20252 25311 25315 28
20253 25316 25317 28
20254 25316 25318 28
20255 25316 25319 28
20256 25316 25320 28
20257 25321 25322 28
20258 25321 25323 28
20259 25321 25324 28
20260 25321 25325 28
20261 25326 25327 28
20262 25326 25328 28
20263 25326 25329 28
20264 25326 25330 28
20265 25331 25332 28
20266 25331 25333 28
20267 25331 25334 28
20268 25331 25335 28
20269 25336 25337 28
20270 25336 25338 28
20271 25336 25339 28
20272 25336 25340 28
20273 25341 25342 28
20274 25341 25343 28
20275 25341 25344 28
20276 25341 25345 28
20277 25346 25347 28
20278 25346 25348 28
20279 25346 25349 28
20280 25346 25350 28
20281 25351 25352 28
20282 25351 25353 28
20283 25351 25354 28
20284 25351 25355 28
20285 25356 25357 28
20286 25356 25358 28
20287 25356 25359 28
20288 25356 25360 28
20289 25361 25362 28
20290 25361 25363 28
20291 25361 25364 28
20292 25361 25365 28
20293 25366 25367 28
20294 25366 25368 28
20295 25366 25369 28
20296 25366 25370 28
20297 25371 25372 28
20298 25371 25373 28
20299 25371 25374 28
20300 25371 25375 28
20301 25376 25377 28
20302 25376 25378 28
20303 25376 25379 28
20304 25376 25380 28
20305 25381 25382 28
20306 25381 25383 28
20307 25381 25384 28
20308 25381 25385 28
20309 25386 25387 28
20310 25386 25388 28
20311 25386 25389 28
20312 25386 25390 28
20313 25391 25392 28
20314 25391 25393 28
20315 25391 25394 28
20316 25391 25395 28
20317 25396 25397 28
20318 25396 25398 28
20319 25396 25399 28
20320 25396 25400 28
20321 25401 25402 28
20322 25401 25403 28
20323 25401 25404 28
20324 25401 25405 28
20325 25406 25407 28
20326 25406 25408 28
20327 25406 25409 28
20328 25406 25410 28
20329 25411 25412 28
20330 25411 25413 28
20331 25411 25414 28
20332 25411 25415 28
20333 25416 25417 28
20334 25416 25418 28
20335 25416 25419 28
20336 25416 25420 28
20337 25421 25422 28
20338 25421 25423 28
20339 25421 25424 28
20340 25421 25425 28
20341 25426 25427 28
20342 25426 25428 28
20343 25426 25429 28
20344 25426 25430 28
20345 25431 25432 28
20346 25431 25433 28
20347 25431 25434 28
20348 25431 25435 28
20349 25436 25437 28
20350 25436 25438 28
20351 25436 25439 28
20352 25436 25440 28
20353 25441 25442 28
20354 25441 25443 28
20355 25441 25444 28
20356 25441 25445 28
20357 25446 25447 28
20358 25446 25448 28
20359 25446 25449 28
20360 25446 25450 28
20361 25451 25452 28
20362 25451 25453 28
20363 25451 25454 28
20364 25451 25455 28
20365 25456 25457 28
20366 25456 25458 28
20367 25456 25459 28
20368 25456 25460 28
20369 25461 25462 28
20370 25461 25463 28
20371 25461 25464 28
20372 25461 25465 28
20373 25466 25467 28
20374 25466 25468 28
20375 25466 25469 28
20376 25466 25470 28
20377 25471 25472 28
20378 25471 25473 28
20379 25471 25474 28
20380 25471 25475 28
20381 25476 25477 28
20382 25476 25478 28
20383 25476 25479 28
20384 25476 25480 28
20385 25481 25482 28
20386 25481 25483 28
20387 25481 25484 28
20388 25481 25485 28
20389 25486 25487 28
20390 25486 25488 28
20391 25486 25489 28
20392 25486 25490 28
20393 25491 25492 28
20394 25491 25493 28
20395 25491 25494 28
20396 25491 25495 28
20397 25496 25497 28
20398 25496 25498 28
20399 25496 25499 28
20400 25496 25500 28
20401 25501 25502 28
20402 25501 25503 28
20403 25501 25504 28
20404 25501 25505 28
20405 25506 25507 28
20406 25506 25508 28
20407 25506 25509 28
20408 25506 25510 28
20409 25511 25512 28
20410 25511 25513 28
20411 25511 25514 28
20412 25511 25515 28
20413 25516 25517 28
20414 25516 25518 28
20415 25516 25519 28
20416 25516 25520 28
20417 25521 25522 28
20418 25521 25523 28
20419 25521 25524 28
20420 25521 25525 28
20421 25526 25527 28
20422 25526 25528 28
20423 25526 25529 28
20424 25526 25530 28
20425 25531 25532 28
20426 25531 25533 28
20427 25531 25534 28
20428 25531 25535 28
20429 25536 25537 28
20430 25536 25538 28
20431 25536 25539 28
20432 25536 25540 28
20433 25541 25542 28
20434 25541 25543 28
20435 25541 25544 28
20436 25541 25545 28
20437 25546 25547 28
20438 25546 25548 28
20439 25546 25549 28
20440 25546 25550 28
20441 25551 25552 28
20442 25551 25553 28
20443 25551 25554 28
20444 25551 25555 28
20445 25556 25557 28
20446 25556 25558 28
20447 25556 25559 28
20448 25556 25560 28
20449 25561 25562 28
20450 25561 25563 28
20451 25561 25564 28
20452 25561 25565 28
20453 25566 25567 28
20454 25566 25568 28
20455 25566 25569 28
20456 25566 25570 28
20457 25571 25572 28
20458 25571 25573 28
20459 25571 25574 28
20460 25571 25575 28
20461 25576 25577 28
20462 25576 25578 28
20463 25576 25579 28
20464 25576 25580 28
20465 25581 25582 28
20466 25581 25583 28
20467 25581 25584 28
20468 25581 25585 28
20469 25586 25587 28
20470 25586 25588 28
20471 25586 25589 28
20472 25586 25590 28
20473 25591 25592 28
20474 25591 25593 28
20475 25591 25594 28
20476 25591 25595 28
20477 25596 25597 28
20478 25596 25598 28
20479 25596 25599 28
20480 25596 25600 28
20481 25601 25602 28
20482 25601 25603 28
20483 25601 25604 28
20484 25601 25605 28
20485 25606 25607 28
20486 25606 25608 28
20487 25606 25609 28
20488 25606 25610 28
20489 25611 25612 28
20490 25611 25613 28
20491 25611 25614 28
20492 25611 25615 28
20493 25616 25617 28
20494 25616 25618 28
20495 25616 25619 28
20496 25616 25620 28
20497 25621 25622 28
20498 25621 25623 28
20499 25621 25624 28
20500 25621 25625 28
20501 25626 25627 28
20502 25626 25628 28
20503 25626 25629 28
20504 25626 25630 28
20505 25631 25632 28
20506 25631 25633 28
20507 25631 25634 28
20508 25631 25635 28
20509 25636 25637 28
20510 25636 25638 28
20511 25636 25639 28
20512 25636 25640 28
20513 25641 25642 28
20514 25641 25643 28
20515 25641 25644 28
20516 25641 25645 28
20517 25646 25647 28
20518 25646 25648 28
20519 25646 25649 28
20520 25646 25650 28
20521 25651 25652 28
20522 25651 25653 28
20523 25651 25654 28
20524 25651 25655 28
20525 25656 25657 28
20526 25656 25658 28
20527 25656 25659 28
20528 25656 25660 28
20529 25661 25662 28
20530 25661 25663 28
20531 25661 25664 28
20532 25661 25665 28
20533 25666 25667 28
20534 25666 25668 28
20535 25666 25669 28
20536 25666 25670 28
20537 25671 25672 28
20538 25671 25673 28
20539 25671 25674 28
20540 25671 25675 28
20541 25676 25677 28
20542 25676 25678 28
20543 25676 25679 28
20544 25676 25680 28
20545 25681 25682 28
20546 25681 25683 28
20547 25681 25684 28
20548 25681 25685 28
20549 25686 25687 28
20550 25686 25688 28
20551 25686 25689 28
20552 25686 25690 28
20553 25691 25692 28
20554 25691 25693 28
20555 25691 25694 28
20556 25691 25695 28
20557 25696 25697 28
20558 25696 25698 28
20559 25696 25699 28
20560 25696 25700 28
20561 25701 25702 28
20562 25701 25703 28
20563 25701 25704 28
20564 25701 25705 28
20565 25706 25707 28
20566 25706 25708 28
20567 25706 25709 28
20568 25706 25710 28
20569 25711 25712 28
20570 25711 25713 28
20571 25711 25714 28
20572 25711 25715 28
20573 25716 25717 28
20574 25716 25718 28
20575 25716 25719 28
20576 25716 25720 28
20577 25721 25722 28
20578 25721 25723 28
20579 25721 25724 28
20580 25721 25725 28
20581 25726 25727 28
20582 25726 25728 28
20583 25726 25729 28
20584 25726 25730 28
20585 25731 25732 28
20586 25731 25733 28
20587 25731 25734 28
20588 25731 25735 28
20589 25736 25737 28
20590 25736 25738 28
20591 25736 25739 28
20592 25736 25740 28
20593 25741 25742 28
20594 25741 25743 28
20595 25741 25744 28
20596 25741 25745 28
20597 25746 25747 28
20598 25746 25748 28
20599 25746 25749 28
20600 25746 25750 28
20601 25751 25752 28
20602 25751 25753 28
20603 25751 25754 28
20604 25751 25755 28
20605 25756 25757 28
20606 25756 25758 28
20607 25756 25759 28
20608 25756 25760 28
20609 25761 25762 28
20610 25761 25763 28
20611 25761 25764 28
20612 25761 25765 28
20613 25766 25767 28
20614 25766 25768 28
20615 25766 25769 28
20616 25766 25770 28
20617 25771 25772 28
20618 25771 25773 28
20619 25771 25774 28
20620 25771 25775 28
20621 25776 25777 28
20622 25776 25778 28
20623 25776 25779 28
20624 25776 25780 28
20625 25781 25782 28
20626 25781 25783 28
20627 25781 25784 28
20628 25781 25785 28
20629 25786 25787 28
20630 25786 25788 28
20631 25786 25789 28
20632 25786 25790 28
20633 25791 25792 28
20634 25791 25793 28
20635 25791 25794 28
20636 25791 25795 28
20637 25796 25797 28
20638 25796 25798 28
20639 25796 25799 28
20640 25796 25800 28
20641 25801 25802 28
20642 25801 25803 28
20643 25801 25804 28
20644 25801 25805 28
20645 25806 25807 28
20646 25806 25808 28
20647 25806 25809 28
20648 25806 25810 28
20649 25811 25812 28
20650 25811 25813 28
20651 25811 25814 28
20652 25811 25815 28
20653 25816 25817 28
20654 25816 25818 28
20655 25816 25819 28
20656 25816 25820 28
20657 25821 25822 28
20658 25821 25823 28
20659 25821 25824 28
20660 25821 25825 28
20661 25826 25827 28
20662 25826 25828 28
20663 25826 25829 28
20664 25826 25830 28
20665 25831 25832 28
20666 25831 25833 28
20667 25831 25834 28
20668 25831 25835 28
20669 25836 25837 28
20670 25836 25838 28
20671 25836 25839 28
20672 25836 25840 28
20673 25841 25842 28
20674 25841 25843 28
20675 25841 25844 28
20676 25841 25845 28
20677 25846 25847 28
20678 25846 25848 28
20679 25846 25849 28
20680 25846 25850 28
20681 25851 25852 28
20682 25851 25853 28
20683 25851 25854 28
20684 25851 25855 28
20685 25856 25857 28
20686 25856 25858 28
20687 25856 25859 28
20688 25856 25860 28
20689 25861 25862 28
20690 25861 25863 28
20691 25861 25864 28
20692 25861 25865 28
20693 25866 25867 28
20694 25866 25868 28
20695 25866 25869 28
20696 25866 25870 28
20697 25871 25872 28
20698 25871 25873 28
20699 25871 25874 28
20700 25871 25875 28
20701 25876 25877 28
20702 25876 25878 28
20703 25876 25879 28
20704 25876 25880 28
20705 25881 25882 28
20706 25881 25883 28
20707 25881 25884 28
20708 25881 25885 28
20709 25886 25887 28
20710 25886 25888 28
20711 25886 25889 28
20712 25886 25890 28
20713 25891 25892 28
20714 25891 25893 28
20715 25891 25894 28
20716 25891 25895 28
20717 25896 25897 28
20718 25896 25898 28
20719 25896 25899 28
20720 25896 25900 28
20721 25901 25902 28
20722 25901 25903 28
20723 25901 25904 28
20724 25901 25905 28
20725 25906 25907 28
20726 25906 25908 28
20727 25906 25909 28
20728 25906 25910 28
20729 25911 25912 28
20730 25911 25913 28
20731 25911 25914 28
20732 25911 25915 28
20733 25916 25917 28
20734 25916 25918 28
20735 25916 25919 28
20736 25916 25920 28
20737 25921 25922 28
20738 25921 25923 28
20739 25921 25924 28
20740 25921 25925 28
20741 25926 25927 28
20742 25926 25928 28
20743 25926 25929 28
20744 25926 25930 28
20745 25931 25932 28
20746 25931 25933 28
20747 25931 25934 28
20748 25931 25935 28
20749 25936 25937 28
20750 25936 25938 28
20751 25936 25939 28
20752 25936 25940 28
20753 25941 25942 28
20754 25941 25943 28
20755 25941 25944 28
20756 25941 25945 28
20757 25946 25947 28
20758 25946 25948 28
20759 25946 25949 28
20760 25946 25950 28
20761 25951 25952 28
20762 25951 25953 28
20763 25951 25954 28
20764 25951 25955 28
20765 25956 25957 28
20766 25956 25958 28
20767 25956 25959 28
20768 25956 25960 28
20769 25961 25962 28
20770 25961 25963 28
20771 25961 25964 28
20772 25961 25965 28
20773 25966 25967 28
20774 25966 25968 28
20775 25966 25969 28
20776 25966 25970 28
20777 25971 25972 28
20778 25971 25973 28
20779 25971 25974 28
20780 25971 25975 28
20781 25976 25977 28
20782 25976 25978 28
20783 25976 25979 28
20784 25976 25980 28
20785 25981 25982 28
20786 25981 25983 28
20787 25981 25984 28
20788 25981 25985 28
20789 25986 25987 28
20790 25986 25988 28
20791 25986 25989 28
20792 25986 25990 28
20793 25991 25992 28
20794 25991 25993 28
20795 25991 25994 28
20796 25991 25995 28
20797 25996 25997 28
20798 25996 25998 28
20799 25996 25999 28
20800 25996 26000 28
20801 26001 26002 28
20802 26001 26003 28
20803 26001 26004 28
20804 26001 26005 28
20805 26006 26007 28
20806 26006 26008 28
20807 26006 26009 28
20808 26006 26010 28
20809 26011 26012 28
20810 26011 26013 28
20811 26011 26014 28
20812 26011 26015 28
20813 26016 26017 28
20814 26016 26018 28
20815 26016 26019 28
20816 26016 26020 28
20817 26021 26022 28
20818 26021 26023 28
20819 26021 26024 28
20820 26021 26025 28
20821 26026 26027 28
20822 26026 26028 28
20823 26026 26029 28
20824 26026 26030 28
20825 26031 26032 28
20826 26031 26033 28
20827 26031 26034 28
20828 26031 26035 28
20829 26036 26037 28
20830 26036 26038 28
20831 26036 26039 28
20832 26036 26040 28
20833 26041 26042 28
20834 26041 26043 28
20835 26041 26044 28
20836 26041 26045 28
20837 26046 26047 28
20838 26046 26048 28
20839 26046 26049 28
20840 26046 26050 28
20841 26051 26052 28
20842 26051 26053 28
20843 26051 26054 28
20844 26051 26055 28
20845 26056 26057 28
20846 26056 26058 28
20847 26056 26059 28
20848 26056 26060 28
20849 26061 26062 28
20850 26061 26063 28
20851 26061 26064 28
20852 26061 26065 28
20853 26066 26067 28
20854 26066 26068 28
20855 26066 26069 28
20856 26066 26070 28
20857 26071 26072 28
20858 26071 26073 28
20859 26071 26074 28
20860 26071 26075 28
20861 26076 26077 28
20862 26076 26078 28
20863 26076 26079 28
20864 26076 26080 28
20865 26081 26082 28
20866 26081 26083 28
20867 26081 26084 28
20868 26081 26085 28
20869 26086 26087 28
20870 26086 26088 28
20871 26086 26089 28
20872 26086 26090 28
20873 26091 26092 28
20874 26091 26093 28
20875 26091 26094 28
20876 26091 26095 28
20877 26096 26097 28
20878 26096 26098 28
20879 26096 26099 28
20880 26096 26100 28
20881 26101 26102 28
20882 26101 26103 28
20883 26101 26104 28
20884 26101 26105 28
20885 26106 26107 28
20886 26106 26108 28
20887 26106 26109 28
20888 26106 26110 28
20889 26111 26112 28
20890 26111 26113 28
20891 26111 26114 28
20892 26111 26115 28
20893 26116 26117 28
20894 26116 26118 28
20895 26116 26119 28
20896 26116 26120 28
20897 26121 26122 28
20898 26121 26123 28
20899 26121 26124 28
20900 26121 26125 28
20901 26126 26127 28
20902 26126 26128 28
20903 26126 26129 28
20904 26126 26130 28
20905 26131 26132 28
20906 26131 26133 28
20907 26131 26134 28
20908 26131 26135 28
20909 26136 26137 28
20910 26136 26138 28
20911 26136 26139 28
20912 26136 26140 28
20913 26141 26142 28
20914 26141 26143 28
20915 26141 26144 28
20916 26141 26145 28
20917 26146 26147 28
20918 26146 26148 28
20919 26146 26149 28
20920 26146 26150 28
20921 26151 26152 28
20922 26151 26153 28
20923 26151 26154 28
20924 26151 26155 28
20925 26156 26157 28
20926 26156 26158 28
20927 26156 26159 28
20928 26156 26160 28
20929 26161 26162 28
20930 26161 26163 28
20931 26161 26164 28
20932 26161 26165 28
20933 26166 26167 28
20934 26166 26168 28
20935 26166 26169 28
20936 26166 26170 28
20937 26171 26172 28
20938 26171 26173 28
20939 26171 26174 28
20940 26171 26175 28
20941 26176 26177 28
20942 26176 26178 28
20943 26176 26179 28
20944 26176 26180 28
20945 26181 26182 28
20946 26181 26183 28
20947 26181 26184 28
20948 26181 26185 28
20949 26186 26187 28
20950 26186 26188 28
20951 26186 26189 28
20952 26186 26190 28
20953 26191 26192 28
20954 26191 26193 28
20955 26191 26194 28
20956 26191 26195 28
20957 26196 26197 28
20958 26196 26198 28
20959 26196 26199 28
20960 26196 26200 28
20961 26201 26202 28
20962 26201 26203 28
20963 26201 26204 28
20964 26201 26205 28
20965 26206 26207 28
20966 26206 26208 28
20967 26206 26209 28
20968 26206 26210 28
20969 26211 26212 28
20970 26211 26213 28
20971 26211 26214 28
20972 26211 26215 28
20973 26216 26217 28
20974 26216 26218 28
20975 26216 26219 28
20976 26216 26220 28
20977 26221 26222 28
20978 26221 26223 28
20979 26221 26224 28
20980 26221 26225 28
20981 26226 26227 28
20982 26226 26228 28
20983 26226 26229 28
20984 26226 26230 28
20985 26231 26232 28
20986 26231 26233 28
20987 26231 26234 28
20988 26231 26235 28
20989 26236 26237 28
20990 26236 26238 28
20991 26236 26239 28
20992 26236 26240 28
20993 26241 26242 28
20994 26241 26243 28
20995 26241 26244 28
20996 26241 26245 28
20997 26246 26247 28
20998 26246 26248 28
20999 26246 26249 28
21000 26246 26250 28
21001 26251 26252 28
21002 26251 26253 28
21003 26251 26254 28
21004 26251 26255 28
21005 26256 26257 28
21006 26256 26258 28
21007 26256 26259 28
21008 26256 26260 28
21009 26261 26262 28
21010 26261 26263 28
21011 26261 26264 28
21012 26261 26265 28
21013 26266 26267 28
21014 26266 26268 28
21015 26266 26269 28
21016 26266 26270 28
21017 26271 26272 28
21018 26271 26273 28
21019 26271 26274 28
21020 26271 26275 28
21021 26276 26277 28
21022 26276 26278 28
21023 26276 26279 28
21024 26276 26280 28
21025 26281 26282 28
21026 26281 26283 28
21027 26281 26284 28
21028 26281 26285 28
21029 26286 26287 28
21030 26286 26288 28
21031 26286 26289 28
21032 26286 26290 28
21033 26291 26292 28
21034 26291 26293 28
21035 26291 26294 28
21036 26291 26295 28
21037 26296 26297 28
21038 26296 26298 28
21039 26296 26299 28
21040 26296 26300 28
21041 26301 26302 28
21042 26301 26303 28
21043 26301 26304 28
21044 26301 26305 28
21045 26306 26307 28
21046 26306 26308 28
21047 26306 26309 28
21048 26306 26310 28
21049 26311 26312 28
21050 26311 26313 28
21051 26311 26314 28
21052 26311 26315 28
21053 26316 26317 28
21054 26316 26318 28
21055 26316 26319 28
21056 26316 26320 28
21057 26321 26322 28
21058 26321 26323 28
21059 26321 26324 28
21060 26321 26325 28
21061 26326 26327 28
21062 26326 26328 28
21063 26326 26329 28
21064 26326 26330 28
21065 26331 26332 28
21066 26331 26333 28
21067 26331 26334 28
21068 26331 26335 28
21069 26336 26337 28
21070 26336 26338 28
21071 26336 26339 28
21072 26336 26340 28
21073 26341 26342 28
21074 26341 26343 28
21075 26341 26344 28
21076 26341 26345 28
21077 26346 26347 28
21078 26346 26348 28
21079 26346 26349 28
21080 26346 26350 28
21081 26351 26352 28
21082 26351 26353 28
21083 26351 26354 28
21084 26351 26355 28
21085 26356 26357 28
21086 26356 26358 28
21087 26356 26359 28
21088 26356 26360 28
21089 26361 26362 28
21090 26361 26363 28
21091 26361 26364 28
21092 26361 26365 28
21093 26366 26367 28
21094 26366 26368 28
21095 26366 26369 28
21096 26366 26370 28
21097 26371 26372 28
21098 26371 26373 28
21099 26371 26374 28
21100 26371 26375 28
21101 26376 26377 28
21102 26376 26378 28
21103 26376 26379 28
21104 26376 26380 28
21105 26381 26382 28
21106 26381 26383 28
21107 26381 26384 28
21108 26381 26385 28
21109 26386 26387 28
21110 26386 26388 28
21111 26386 26389 28
21112 26386 26390 28
21113 26391 26392 28
21114 26391 26393 28
21115 26391 26394 28
21116 26391 26395 28
21117 26396 26397 28
21118 26396 26398 28
21119 26396 26399 28
21120 26396 26400 28
21121 26401 26402 28
21122 26401 26403 28
21123 26401 26404 28
21124 26401 26405 28
21125 26406 26407 28
21126 26406 26408 28
21127 26406 26409 28
21128 26406 26410 28
21129 26411 26412 28
21130 26411 26413 28
21131 26411 26414 28
21132 26411 26415 28
21133 26416 26417 28
21134 26416 26418 28
21135 26416 26419 28
21136 26416 26420 28
21137 26421 26422 28
21138 26421 26423 28
21139 26421 26424 28
21140 26421 26425 28
21141 26426 26427 28
21142 26426 26428 28
21143 26426 26429 28
21144 26426 26430 28
21145 26431 26432 28
21146 26431 26433 28
21147 26431 26434 28
21148 26431 26435 28
21149 26436 26437 28
21150 26436 26438 28
21151 26436 26439 28
21152 26436 26440 28
21153 26441 26442 28
21154 26441 26443 28
21155 26441 26444 28
21156 26441 26445 28
21157 26446 26447 28
21158 26446 26448 28
21159 26446 26449 28
21160 26446 26450 28
21161 26451 26452 28
21162 26451 26453 28
21163 26451 26454 28
21164 26451 26455 28
21165 26456 26457 28
21166 26456 26458 28
21167 26456 26459 28
21168 26456 26460 28
21169 26461 26462 28
21170 26461 26463 28
21171 26461 26464 28
21172 26461 26465 28
21173 26466 26467 28
21174 26466 26468 28
21175 26466 26469 28
21176 26466 26470 28
21177 26471 26472 28
21178 26471 26473 28
21179 26471 26474 28
21180 26471 26475 28
21181 26476 26477 28
21182 26476 26478 28
21183 26476 26479 28
21184 26476 26480 28
21185 26481 26482 28
21186 26481 26483 28
21187 26481 26484 28
21188 26481 26485 28
21189 26486 26487 28
21190 26486 26488 28
21191 26486 26489 28
21192 26486 26490 28
21193 26491 26492 28
21194 26491 26493 28
21195 26491 26494 28
21196 26491 26495 28
21197 26496 26497 28
21198 26496 26498 28
21199 26496 26499 28
21200 26496 26500 28
21201 26501 26502 28
21202 26501 26503 28
21203 26501 26504 28
21204 26501 26505 28
21205 26506 26507 28
21206 26506 26508 28
21207 26506 26509 28
21208 26506 26510 28
21209 26511 26512 28
21210 26511 26513 28
21211 26511 26514 28
21212 26511 26515 28
21213 26516 26517 28
21214 26516 26518 28
21215 26516 26519 28
21216 26516 26520 28
21217 26521 26522 28
21218 26521 26523 28
21219 26521 26524 28
21220 26521 26525 28
21221 26526 26527 28
21222 26526 26528 28
21223 26526 26529 28
21224 26526 26530 28
21225 26531 26532 28
21226 26531 26533 28
21227 26531 26534 28
21228 26531 26535 28
21229 26536 26537 28
21230 26536 26538 28
21231 26536 26539 28
21232 26536 26540 28
21233 26541 26542 28
21234 26541 26543 28
21235 26541 26544 28
21236 26541 26545 28
21237 26546 26547 28
21238 26546 26548 28
21239 26546 26549 28
21240 26546 26550 28
21241 26551 26552 28
21242 26551 26553 28
21243 26551 26554 28
21244 26551 26555 28
21245 26556 26557 28
21246 26556 26558 28
21247 26556 26559 28
21248 26556 26560 28
21249 26561 26562 28
21250 26561 26563 28
21251 26561 26564 28
21252 26561 26565 28
21253 26566 26567 28
21254 26566 26568 28
21255 26566 26569 28
21256 26566 26570 28
21257 26571 26572 28
21258 26571 26573 28
21259 26571 26574 28
21260 26571 26575 28
21261 26576 26577 28
21262 26576 26578 28
21263 26576 26579 28
21264 26576 26580 28
21265 26581 26582 28
21266 26581 26583 28
21267 26581 26584 28
21268 26581 26585 28
21269 26586 26587 28
21270 26586 26588 28
21271 26586 26589 28
21272 26586 26590 28
21273 26591 26592 28
21274 26591 26593 28
21275 26591 26594 28
21276 26591 26595 28
21277 26596 26597 28
21278 26596 26598 28
21279 26596 26599 28
21280 26596 26600 28
21281 26601 26602 28
21282 26601 26603 28
21283 26601 26604 28
21284 26601 26605 28
21285 26606 26607 28
21286 26606 26608 28
21287 26606 26609 28
21288 26606 26610 28
21289 26611 26612 28
21290 26611 26613 28
21291 26611 26614 28
21292 26611 26615 28
21293 26616 26617 28
21294 26616 26618 28
21295 26616 26619 28
21296 26616 26620 28
21297 26621 26622 28
21298 26621 26623 28
21299 26621 26624 28
21300 26621 26625 28
21301 26626 26627 28
21302 26626 26628 28
21303 26626 26629 28
21304 26626 26630 28
21305 26631 26632 28
21306 26631 26633 28
21307 26631 26634 28
21308 26631 26635 28
21309 26636 26637 28
21310 26636 26638 28
21311 26636 26639 28
21312 26636 26640 28
21313 26641 26642 28
21314 26641 26643 28
21315 26641 26644 28
21316 26641 26645 28
21317 26646 26647 28
21318 26646 26648 28
21319 26646 26649 28
21320 26646 26650 28
21321 26651 26652 28
21322 26651 26653 28
21323 26651 26654 28
21324 26651 26655 28
21325 26656 26657 28
21326 26656 26658 28
21327 26656 26659 28
21328 26656 26660 28
21329 26661 26662 28
21330 26661 26663 28
21331 26661 26664 28
21332 26661 26665 28
21333 26666 26667 28
21334 26666 26668 28
21335 26666 26669 28
21336 26666 26670 28
21337 26671 26672 28
21338 26671 26673 28
21339 26671 26674 28
21340 26671 26675 28
21341 26676 26677 28
21342 26676 26678 28
21343 26676 26679 28
21344 26676 26680 28
21345 26681 26682 28
21346 26681 26683 28
21347 26681 26684 28
21348 26681 26685 28
21349 26686 26687 28
21350 26686 26688 28
21351 26686 26689 28
21352 26686 26690 28
21353 26691 26692 28
21354 26691 26693 28
21355 26691 26694 28
21356 26691 26695 28
21357 26696 26697 28
21358 26696 26698 28
21359 26696 26699 28
21360 26696 26700 28
21361 26701 26702 28
21362 26701 26703 28
21363 26701 26704 28
21364 26701 26705 28
21365 26706 26707 28
21366 26706 26708 28
21367 26706 26709 28
21368 26706 26710 28
21369 26711 26712 28
21370 26711 26713 28
21371 26711 26714 28
21372 26711 26715 28
21373 26716 26717 28
21374 26716 26718 28
21375 26716 26719 28
21376 26716 26720 28
21377 26721 26722 28
21378 26721 26723 28
21379 26721 26724 28
21380 26721 26725 28
21381 26726 26727 28
21382 26726 26728 28
21383 26726 26729 28
21384 26726 26730 28
21385 26731 26732 28
21386 26731 26733 28
21387 26731 26734 28
21388 26731 26735 28
21389 26736 26737 28
21390 26736 26738 28
21391 26736 26739 28
21392 26736 26740 28
21393 26741 26742 28
21394 26741 26743 28
21395 26741 26744 28
21396 26741 26745 28
21397 26746 26747 28
21398 26746 26748 28
21399 26746 26749 28
21400 26746 26750 28
21401 26751 26752 28
21402 26751 26753 28
21403 26751 26754 28
21404 26751 26755 28
21405 26756 26757 28
21406 26756 26758 28
21407 26756 26759 28
21408 26756 26760 28
21409 26761 26762 28
21410 26761 26763 28
21411 26761 26764 28
21412 26761 26765 28
21413 26766 26767 28
21414 26766 26768 28
21415 26766 26769 28
21416 26766 26770 28
21417 26771 26772 28
21418 26771 26773 28
21419 26771 26774 28
21420 26771 26775 28
21421 26776 26777 28
21422 26776 26778 28
21423 26776 26779 28
21424 26776 26780 28
21425 26781 26782 28
21426 26781 26783 28
21427 26781 26784 28
21428 26781 26785 28
21429 26786 26787 28
21430 26786 26788 28
21431 26786 26789 28
21432 26786 26790 28
21433 26791 26792 28
21434 26791 26793 28
21435 26791 26794 28
21436 26791 26795 28
21437 26796 26797 28
21438 26796 26798 28
21439 26796 26799 28
21440 26796 26800 28
21441 26801 26802 28
21442 26801 26803 28
21443 26801 26804 28
21444 26801 26805 28
21445 26806 26807 28
21446 26806 26808 28
21447 26806 26809 28
21448 26806 26810 28
21449 26811 26812 28
21450 26811 26813 28
21451 26811 26814 28
21452 26811 26815 28
21453 26816 26817 28
21454 26816 26818 28
21455 26816 26819 28
21456 26816 26820 28
21457 26821 26822 28
21458 26821 26823 28
21459 26821 26824 28
21460 26821 26825 28
21461 26826 26827 28
21462 26826 26828 28
21463 26826 26829 28
21464 26826 26830 28
21465 26831 26832 28
21466 26831 26833 28
21467 26831 26834 28
21468 26831 26835 28
21469 26836 26837 28
21470 26836 26838 28
21471 26836 26839 28
21472 26836 26840 28
21473 26841 26842 28
21474 26841 26843 28
21475 26841 26844 28
21476 26841 26845 28
21477 26846 26847 28
21478 26846 26848 28
21479 26846 26849 28
21480 26846 26850 28
21481 26851 26852 28
21482 26851 26853 28
21483 26851 26854 28
21484 26851 26855 28
21485 26856 26857 28
21486 26856 26858 28
21487 26856 26859 28
21488 26856 26860 28
21489 26861 26862 28
21490 26861 26863 28
21491 26861 26864 28
21492 26861 26865 28
21493 26866 26867 28
21494 26866 26868 28
21495 26866 26869 28
21496 26866 26870 28
21497 26871 26872 28
21498 26871 26873 28
21499 26871 26874 28
21500 26871 26875 28
21501 26876 26877 28
21502 26876 26878 28
21503 26876 26879 28
21504 26876 26880 28
21505 26881 26882 28
21506 26881 26883 28
21507 26881 26884 28
21508 26881 26885 28
21509 26886 26887 28
21510 26886 26888 28
21511 26886 26889 28
21512 26886 26890 28
21513 26891 26892 28
21514 26891 26893 28
21515 26891 26894 28
21516 26891 26895 28
21517 26896 26897 28
21518 26896 26898 28
21519 26896 26899 28
21520 26896 26900 28
21521 26901 26902 28
21522 26901 26903 28
21523 26901 26904 28
21524 26901 26905 28
21525 26906 26907 28
21526 26906 26908 28
21527 26906 26909 28
21528 26906 26910 28
21529 26911 26912 28
21530 26911 26913 28
21531 26911 26914 28
21532 26911 26915 28
21533 26916 26917 28
21534 26916 26918 28
21535 26916 26919 28
21536 26916 26920 28
21537 26921 26922 28
21538 26921 26923 28
21539 26921 26924 28
21540 26921 26925 28
21541 26926 26927 28
21542 26926 26928 28
21543 26926 26929 28
21544 26926 26930 28
21545 26931 26932 28
21546 26931 26933 28
21547 26931 26934 28
21548 26931 26935 28
21549 26936 26937 28
21550 26936 26938 28
21551 26936 26939 28
21552 26936 26940 28
21553 26941 26942 28
21554 26941 26943 28
21555 26941 26944 28
21556 26941 26945 28
21557 26946 26947 28
21558 26946 26948 28
21559 26946 26949 28
21560 26946 26950 28
21561 26951 26952 28
21562 26951 26953 28
21563 26951 26954 28
21564 26951 26955 28
21565 26956 26957 28
21566 26956 26958 28
21567 26956 26959 28
21568 26956 26960 28
21569 26961 26962 28
21570 26961 26963 28
21571 26961 26964 28
21572 26961 26965 28
21573 26966 26967 28
21574 26966 26968 28
21575 26966 26969 28
21576 26966 26970 28
21577 26971 26972 28
21578 26971 26973 28
21579 26971 26974 28
21580 26971 26975 28
21581 26976 26977 28
21582 26976 26978 28
21583 26976 26979 28
21584 26976 26980 28
21585 26981 26982 28
21586 26981 26983 28
21587 26981 26984 28
21588 26981 26985 28
21589 26986 26987 28
21590 26986 26988 28
21591 26986 26989 28
21592 26986 26990 28
21593 26991 26992 28
21594 26991 26993 28
21595 26991 26994 28
21596 26991 26995 28
21597 26996 26997 28
21598 26996 26998 28
21599 26996 26999 28
21600 26996 27000 28
21601 27001 27002 28
21602 27001 27003 28
21603 27001 27004 28
21604 27001 27005 28
21605 27006 27007 28
21606 27006 27008 28
21607 27006 27009 28
21608 27006 27010 28
21609 27011 27012 28
21610 27011 27013 28
21611 27011 27014 28
21612 27011 27015 28
21613 27016 27017 28
21614 27016 27018 28
21615 27016 27019 28
21616 27016 27020 28
21617 27021 27022 28
21618 27021 27023 28
21619 27021 27024 28
21620 27021 27025 28
21621 27026 27027 28
21622 27026 27028 28
21623 27026 27029 28
21624 27026 27030 28
21625 27031 27032 28
21626 27031 27033 28
21627 27031 27034 28
21628 27031 27035 28
21629 27036 27037 28
21630 27036 27038 28
21631 27036 27039 28
21632 27036 27040 28
21633 27041 27042 28
21634 27041 27043 28
21635 27041 27044 28
21636 27041 27045 28
21637 27046 27047 28
21638 27046 27048 28
21639 27046 27049 28
21640 27046 27050 28
21641 27051 27052 28
21642 27051 27053 28
21643 27051 27054 28
21644 27051 27055 28
21645 27056 27057 28
21646 27056 27058 28
21647 27056 27059 28
21648 27056 27060 28
21649 27061 27062 28
21650 27061 27063 28
21651 27061 27064 28
21652 27061 27065 28
21653 27066 27067 28
21654 27066 27068 28
21655 27066 27069 28
21656 27066 27070 28
21657 27071 27072 28
21658 27071 27073 28
21659 27071 27074 28
21660 27071 27075 28
21661 27076 27077 28
21662 27076 27078 28
21663 27076 27079 28
21664 27076 27080 28
21665 27081 27082 28
21666 27081 27083 28
21667 27081 27084 28
21668 27081 27085 28
21669 27086 27087 28
21670 27086 27088 28
21671 27086 27089 28
21672 27086 27090 28
21673 27091 27092 28
21674 27091 27093 28
21675 27091 27094 28
21676 27091 27095 28
21677 27096 27097 28
21678 27096 27098 28
21679 27096 27099 28
21680 27096 27100 28
21681 27101 27102 28
21682 27101 27103 28
21683 27101 27104 28
21684 27101 27105 28
21685 27106 27107 28
21686 27106 27108 28
21687 27106 27109 28
21688 27106 27110 28
21689 27111 27112 28
21690 27111 27113 28
21691 27111 27114 28
21692 27111 27115 28
21693 27116 27117 28
21694 27116 27118 28
21695 27116 27119 28
21696 27116 27120 28
21697 27121 27122 28
21698 27121 27123 28
21699 27121 27124 28
21700 27121 27125 28
21701 27126 27127 28
21702 27126 27128 28
21703 27126 27129 28
21704 27126 27130 28
21705 27131 27132 28
21706 27131 27133 28
21707 27131 27134 28
21708 27131 27135 28
21709 27136 27137 28
21710 27136 27138 28
21711 27136 27139 28
21712 27136 27140 28
21713 27141 27142 28
21714 27141 27143 28
21715 27141 27144 28
21716 27141 27145 28
21717 27146 27147 28
21718 27146 27148 28
21719 27146 27149 28
21720 27146 27150 28
21721 27151 27152 28
21722 27151 27153 28
21723 27151 27154 28
21724 27151 27155 28
21725 27156 27157 28
21726 27156 27158 28
21727 27156 27159 28
21728 27156 27160 28
21729 27161 27162 28
21730 27161 27163 28
21731 27161 27164 28
21732 27161 27165 28
21733 27166 27167 28
21734 27166 27168 28
21735 27166 27169 28
21736 27166 27170 28
21737 27171 27172 28
21738 27171 27173 28
21739 27171 27174 28
21740 27171 27175 28
21741 27176 27177 28
21742 27176 27178 28
21743 27176 27179 28
21744 27176 27180 28
21745 27181 27182 28
21746 27181 27183 28
21747 27181 27184 28
21748 27181 27185 28
21749 27186 27187 28
21750 27186 27188 28
21751 27186 27189 28
21752 27186 27190 28
21753 27191 27192 28
21754 27191 27193 28
21755 27191 27194 28
21756 27191 27195 28
21757 27196 27197 28
21758 27196 27198 28
21759 27196 27199 28
21760 27196 27200 28
21761 27201 27202 28
21762 27201 27203 28
21763 27201 27204 28
21764 27201 27205 28
21765 27206 27207 28
21766 27206 27208 28
21767 27206 27209 28
21768 27206 27210 28
21769 27211 27212 28
21770 27211 27213 28
21771 27211 27214 28
21772 27211 27215 28
21773 27216 27217 28
21774 27216 27218 28
21775 27216 27219 28
21776 27216 27220 28
21777 27221 27222 28
21778 27221 27223 28
21779 27221 27224 28
21780 27221 27225 28
21781 27226 27227 28
21782 27226 27228 28
21783 27226 27229 28
21784 27226 27230 28
21785 27231 27232 28
21786 27231 27233 28
21787 27231 27234 28
21788 27231 27235 28
21789 27236 27237 28
21790 27236 27238 28
21791 27236 27239 28
21792 27236 27240 28
21793 27241 27242 28
21794 27241 27243 28
21795 27241 27244 28
21796 27241 27245 28
21797 27246 27247 28
21798 27246 27248 28
21799 27246 27249 28
21800 27246 27250 28
21801 27251 27252 28
21802 27251 27253 28
21803 27251 27254 28
21804 27251 27255 28
21805 27256 27257 28
21806 27256 27258 28
21807 27256 27259 28
21808 27256 27260 28
21809 27261 27262 28
21810 27261 27263 28
21811 27261 27264 28
21812 27261 27265 28
21813 27266 27267 28
21814 27266 27268 28
21815 27266 27269 28
21816 27266 27270 28
21817 27271 27272 28
21818 27271 27273 28
21819 27271 27274 28
21820 27271 27275 28
21821 27276 27277 28
21822 27276 27278 28
21823 27276 27279 28
21824 27276 27280 28
21825 27281 27282 28
21826 27281 27283 28
21827 27281 27284 28
21828 27281 27285 28
21829 27286 27287 28
21830 27286 27288 28
21831 27286 27289 28
21832 27286 27290 28
21833 27291 27292 28
21834 27291 27293 28
21835 27291 27294 28
21836 27291 27295 28
21837 27296 27297 28
21838 27296 27298 28
21839 27296 27299 28
21840 27296 27300 28
21841 27301 27302 28
21842 27301 27303 28
21843 27301 27304 28
21844 27301 27305 28
21845 27306 27307 28
21846 27306 27308 28
21847 27306 27309 28
21848 27306 27310 28
21849 27311 27312 28
21850 27311 27313 28
21851 27311 27314 28
21852 27311 27315 28
21853 27316 27317 28
21854 27316 27318 28
21855 27316 27319 28
21856 27316 27320 28
21857 27321 27322 28
21858 27321 27323 28
21859 27321 27324 28
21860 27321 27325 28
21861 27326 27327 28
21862 27326 27328 28
21863 27326 27329 28
21864 27326 27330 28
21865 27331 27332 28
21866 27331 27333 28
21867 27331 27334 28
21868 27331 27335 28
21869 27336 27337 28
21870 27336 27338 28
21871 27336 27339 28
21872 27336 27340 28
21873 27341 27342 28
21874 27341 27343 28
21875 27341 27344 28
21876 27341 27345 28
21877 27346 27347 28
21878 27346 27348 28
21879 27346 27349 28
21880 27346 27350 28
21881 27351 27352 28
21882 27351 27353 28
21883 27351 27354 28
21884 27351 27355 28
21885 27356 27357 28
21886 27356 27358 28
21887 27356 27359 28
21888 27356 27360 28
21889 27361 27362 28
21890 27361 27363 28
21891 27361 27364 28
21892 27361 27365 28
21893 27366 27367 28
21894 27366 27368 28
21895 27366 27369 28
21896 27366 27370 28
21897 27371 27372 28
21898 27371 27373 28
21899 27371 27374 28
21900 27371 27375 28
21901 27376 27377 28
21902 27376 27378 28
21903 27376 27379 28
21904 27376 27380 28
21905 27381 27382 28
21906 27381 27383 28
21907 27381 27384 28
21908 27381 27385 28
21909 27386 27387 28
21910 27386 27388 28
21911 27386 27389 28
21912 27386 27390 28
21913 27391 27392 28
21914 27391 27393 28
21915 27391 27394 28
21916 27391 27395 28
21917 27396 27397 28
21918 27396 27398 28
21919 27396 27399 28
21920 27396 27400 28
21921 27401 27402 28
21922 27401 27403 28
21923 27401 27404 28
21924 27401 27405 28
21925 27406 27407 28
21926 27406 27408 28
21927 27406 27409 28
21928 27406 27410 28
21929 27411 27412 28
21930 27411 27413 28
21931 27411 27414 28
21932 27411 27415 28
21933 27416 27417 28
21934 27416 27418 28
21935 27416 27419 28
21936 27416 27420 28
21937 27421 27422 28
21938 27421 27423 28
21939 27421 27424 28
21940 27421 27425 28
21941 27426 27427 28
21942 27426 27428 28
21943 27426 27429 28
21944 27426 27430 28
21945 27431 27432 28
21946 27431 27433 28
21947 27431 27434 28
21948 27431 27435 28
21949 27436 27437 28
21950 27436 27438 28
21951 27436 27439 28
21952 27436 27440 28
21953 27441 27442 28
21954 27441 27443 28
21955 27441 27444 28
21956 27441 27445 28
21957 27446 27447 28
21958 27446 27448 28
21959 27446 27449 28
21960 27446 27450 28
21961 27451 27452 28
21962 27451 27453 28
21963 27451 27454 28
21964 27451 27455 28
21965 27456 27457 28
21966 27456 27458 28
21967 27456 27459 28
21968 27456 27460 28
21969 27461 27462 28
21970 27461 27463 28
21971 27461 27464 28
21972 27461 27465 28
21973 27466 27467 28
21974 27466 27468 28
21975 27466 27469 28
21976 27466 27470 28
21977 27471 27472 28
21978 27471 27473 28
21979 27471 27474 28
21980 27471 27475 28
21981 27476 27477 28
21982 27476 27478 28
21983 27476 27479 28
21984 27476 27480 28
21985 27481 27482 28
21986 27481 27483 28
21987 27481 27484 28
21988 27481 27485 28
21989 27486 27487 28
21990 27486 27488 28
21991 27486 27489 28
21992 27486 27490 28
21993 27491 27492 28
21994 27491 27493 28
21995 27491 27494 28
21996 27491 27495 28
21997 27496 27497 28
21998 27496 27498 28
21999 27496 27499 28
22000 27496 27500 28
22001 27501 27502 28
22002 27501 27503 28
22003 27501 27504 28
22004 27501 27505 28
22005 27506 27507 28
22006 27506 27508 28
22007 27506 27509 28
22008 27506 27510 28
22009 27511 27512 28
22010 27511 27513 28
22011 27511 27514 28
22012 27511 27515 28
22013 27516 27517 28
22014 27516 27518 28
22015 27516 27519 28
22016 27516 27520 28
22017 27521 27522 28
22018 27521 27523 28
22019 27521 27524 28
22020 27521 27525 28
22021 27526 27527 28
22022 27526 27528 28
22023 27526 27529 28
22024 27526 27530 28
22025 27531 27532 28
22026 27531 27533 28
22027 27531 27534 28
22028 27531 27535 28
22029 27536 27537 28
22030 27536 27538 28
22031 27536 27539 28
22032 27536 27540 28
22033 27541 27542 28
22034 27541 27543 28
22035 27541 27544 28
22036 27541 27545 28
22037 27546 27547 28
22038 27546 27548 28
22039 27546 27549 28
22040 27546 27550 28
22041 27551 27552 28
22042 27551 27553 28
22043 27551 27554 28
22044 27551 27555 28
22045 27556 27557 28
22046 27556 27558 28
22047 27556 27559 28
22048 27556 27560 28
22049 27561 27562 28
22050 27561 27563 28
22051 27561 27564 28
22052 27561 27565 28
22053 27566 27567 28
22054 27566 27568 28
22055 27566 27569 28
22056 27566 27570 28
22057 27571 27572 28
22058 27571 27573 28
22059 27571 27574 28
22060 27571 27575 28
22061 27576 27577 28
22062 27576 27578 28
22063 27576 27579 28
22064 27576 27580 28
22065 27581 27582 28
22066 27581 27583 28
22067 27581 27584 28
22068 27581 27585 28
22069 27586 27587 28
22070 27586 27588 28
22071 27586 27589 28
22072 27586 27590 28
22073 27591 27592 28
22074 27591 27593 28
22075 27591 27594 28
22076 27591 27595 28
22077 27596 27597 28
22078 27596 27598 28
22079 27596 27599 28
22080 27596 27600 28
22081 27601 27602 28
22082 27601 27603 28
22083 27601 27604 28
22084 27601 27605 28
22085 27606 27607 28
22086 27606 27608 28
22087 27606 27609 28
22088 27606 27610 28
22089 27611 27612 28
22090 27611 27613 28
22091 27611 27614 28
22092 27611 27615 28
22093 27616 27617 28
22094 27616 27618 28
22095 27616 27619 28
22096 27616 27620 28
22097 27621 27622 28
22098 27621 27623 28
22099 27621 27624 28
22100 27621 27625 28
22101 27626 27627 28
22102 27626 27628 28
22103 27626 27629 28
22104 27626 27630 28
22105 27631 27632 28
22106 27631 27633 28
22107 27631 27634 28
22108 27631 27635 28
22109 27636 27637 28
22110 27636 27638 28
22111 27636 27639 28
22112 27636 27640 28
22113 27641 27642 28
22114 27641 27643 28
22115 27641 27644 28
22116 27641 27645 28
22117 27646 27647 28
22118 27646 27648 28
22119 27646 27649 28
22120 27646 27650 28
22121 27651 27652 28
22122 27651 27653 28
22123 27651 27654 28
22124 27651 27655 28
22125 27656 27657 28
22126 27656 27658 28
22127 27656 27659 28
22128 27656 27660 28
22129 27661 27662 28
22130 27661 27663 28
22131 27661 27664 28
22132 27661 27665 28
22133 27666 27667 28
22134 27666 27668 28
22135 27666 27669 28
22136 27666 27670 28
22137 27671 27672 28
22138 27671 27673 28
22139 27671 27674 28
22140 27671 27675 28
22141 27676 27677 28
22142 27676 27678 28
22143 27676 27679 28
22144 27676 27680 28
22145 27681 27682 28
22146 27681 27683 28
22147 27681 27684 28
22148 27681 27685 28
22149 27686 27687 28
22150 27686 27688 28
22151 27686 27689 28
22152 27686 27690 28
22153 27691 27692 28
22154 27691 27693 28
22155 27691 27694 28
22156 27691 27695 28
22157 27696 27697 28
22158 27696 27698 28
22159 27696 27699 28
22160 27696 27700 28
22161 27701 27702 28
22162 27701 27703 28
22163 27701 27704 28
22164 27701 27705 28
22165 27706 27707 28
22166 27706 27708 28
22167 27706 27709 28
22168 27706 27710 28
22169 27711 27712 28
22170 27711 27713 28
22171 27711 27714 28
22172 27711 27715 28
22173 27716 27717 28
22174 27716 27718 28
22175 27716 27719 28
22176 27716 27720 28
22177 27721 27722 28
22178 27721 27723 28
22179 27721 27724 28
22180 27721 27725 28
22181 27726 27727 28
22182 27726 27728 28
22183 27726 27729 28
22184 27726 27730 28
22185 27731 27732 28
22186 27731 27733 28
22187 27731 27734 28
22188 27731 27735 28
22189 27736 27737 28
22190 27736 27738 28
22191 27736 27739 28
22192 27736 27740 28
22193 27741 27742 28
22194 27741 27743 28
22195 27741 27744 28
22196 27741 27745 28
22197 27746 27747 28
22198 27746 27748 28
22199 27746 27749 28
22200 27746 27750 28
22201 27751 27752 28
22202 27751 27753 28
22203 27751 27754 28
22204 27751 27755 28
22205 27756 27757 28
22206 27756 27758 28
22207 27756 27759 28
22208 27756 27760 28
22209 27761 27762 28
22210 27761 27763 28
22211 27761 27764 28
22212 27761 27765 28
22213 27766 27767 28
22214 27766 27768 28
22215 27766 27769 28
22216 27766 27770 28
22217 27771 27772 28
22218 27771 27773 28
22219 27771 27774 28
22220 27771 27775 28
22221 27776 27777 28
22222 27776 27778 28
22223 27776 27779 28
22224 27776 27780 28
22225 27781 27782 28
22226 27781 27783 28
22227 27781 27784 28
22228 27781 27785 28
22229 27786 27787 28
22230 27786 27788 28
22231 27786 27789 28
22232 27786 27790 28
22233 27791 27792 28
22234 27791 27793 28
22235 27791 27794 28
22236 27791 27795 28
22237 27796 27797 28
22238 27796 27798 28
22239 27796 27799 28
22240 27796 27800 28
22241 27801 27802 28
22242 27801 27803 28
22243 27801 27804 28
22244 27801 27805 28
22245 27806 27807 28
22246 27806 27808 28
22247 27806 27809 28
22248 27806 27810 28
22249 27811 27812 28
22250 27811 27813 28
22251 27811 27814 28
22252 27811 27815 28
22253 27816 27817 28
22254 27816 27818 28
22255 27816 27819 28
22256 27816 27820 28
22257 27821 27822 28
22258 27821 27823 28
22259 27821 27824 28
22260 27821 27825 28
22261 27826 27827 28
22262 27826 27828 28
22263 27826 27829 28
22264 27826 27830 28
22265 27831 27832 28
22266 27831 27833 28
22267 27831 27834 28
22268 27831 27835 28
22269 27836 27837 28
22270 27836 27838 28
22271 27836 27839 28
22272 27836 27840 28
22273 27841 27842 28
22274 27841 27843 28
22275 27841 27844 28
22276 27841 27845 28
22277 27846 27847 28
22278 27846 27848 28
22279 27846 27849 28
22280 27846 27850 28
22281 27851 27852 28
22282 27851 27853 28
22283 27851 27854 28
22284 27851 27855 28
22285 27856 27857 28
22286 27856 27858 28
22287 27856 27859 28
22288 27856 27860 28
22289 27861 27862 28
22290 27861 27863 28
22291 27861 27864 28
22292 27861 27865 28
22293 27866 27867 28
22294 27866 27868 28
22295 27866 27869 28
22296 27866 27870 28
22297 27871 27872 28
22298 27871 27873 28
22299 27871 27874 28
22300 27871 27875 28
22301 27876 27877 28
22302 27876 27878 28
22303 27876 27879 28
22304 27876 27880 28
22305 27881 27882 28
22306 27881 27883 28
22307 27881 27884 28
22308 27881 27885 28
22309 27886 27887 28
22310 27886 27888 28
22311 27886 27889 28
22312 27886 27890 28
22313 27891 27892 28
22314 27891 27893 28
22315 27891 27894 28
22316 27891 27895 28
22317 27896 27897 28
22318 27896 27898 28
22319 27896 27899 28
22320 27896 27900 28
22321 27901 27902 28
22322 27901 27903 28
22323 27901 27904 28
22324 27901 27905 28
22325 27906 27907 28
22326 27906 27908 28
22327 27906 27909 28
22328 27906 27910 28
22329 27911 27912 28
22330 27911 27913 28
22331 27911 27914 28
22332 27911 27915 28
22333 27916 27917 28
22334 27916 27918 28
22335 27916 27919 28
22336 27916 27920 28
22337 27921 27922 28
22338 27921 27923 28
22339 27921 27924 28
22340 27921 27925 28
22341 27926 27927 28
22342 27926 27928 28
22343 27926 27929 28
22344 27926 27930 28
22345 27931 27932 28
22346 27931 27933 28
22347 27931 27934 28
22348 27931 27935 28
22349 27936 27937 28
22350 27936 27938 28
22351 27936 27939 28
22352 27936 27940 28
22353 27941 27942 28
22354 27941 27943 28
22355 27941 27944 28
22356 27941 27945 28
22357 27946 27947 28
22358 27946 27948 28
22359 27946 27949 28
22360 27946 27950 28
22361 27951 27952 28
22362 27951 27953 28
22363 27951 27954 28
22364 27951 27955 28
22365 27956 27957 28
22366 27956 27958 28
22367 27956 27959 28
22368 27956 27960 28
22369 27961 27962 28
22370 27961 27963 28
22371 27961 27964 28
22372 27961 27965 28
22373 27966 27967 28
22374 27966 27968 28
22375 27966 27969 28
22376 27966 27970 28
22377 27971 27972 28
22378 27971 27973 28
22379 27971 27974 28
22380 27971 27975 28
22381 27976 27977 28
22382 27976 27978 28
22383 27976 27979 28
22384 27976 27980 28
22385 27981 27982 28
22386 27981 27983 28
22387 27981 27984 28
22388 27981 27985 28
22389 27986 27987 28
22390 27986 27988 28
22391 27986 27989 28
22392 27986 27990 28
22393 27991 27992 28
22394 27991 27993 28
22395 27991 27994 28
22396 27991 27995 28
22397 27996 27997 28
22398 27996 27998 28
22399 27996 27999 28
22400 27996 28000 28
22401 28001 28002 28
22402 28001 28003 28
22403 28001 28004 28
22404 28001 28005 28
22405 28006 28007 28
22406 28006 28008 28
22407 28006 28009 28
22408 28006 28010 28
22409 28011 28012 28
22410 28011 28013 28
22411 28011 28014 28
22412 28011 28015 28
22413 28016 28017 28
22414 28016 28018 28
22415 28016 28019 28
22416 28016 28020 28
22417 28021 28022 28
22418 28021 28023 28
22419 28021 28024 28
22420 28021 28025 28
22421 28026 28027 28
22422 28026 28028 28
22423 28026 28029 28
22424 28026 28030 28
22425 28031 28032 28
22426 28031 28033 28
22427 28031 28034 28
22428 28031 28035 28
22429 28036 28037 28
22430 28036 28038 28
22431 28036 28039 28
22432 28036 28040 28
22433 28041 28042 28
22434 28041 28043 28
22435 28041 28044 28
22436 28041 28045 28
22437 28046 28047 28
22438 28046 28048 28
22439 28046 28049 28
22440 28046 28050 28
22441 28051 28052 28
22442 28051 28053 28
22443 28051 28054 28
22444 28051 28055 28
22445 28056 28057 28
22446 28056 28058 28
22447 28056 28059 28
22448 28056 28060 28
22449 28061 28062 28
22450 28061 28063 28
22451 28061 28064 28
22452 28061 28065 28
22453 28066 28067 28
22454 28066 28068 28
22455 28066 28069 28
22456 28066 28070 28
22457 28071 28072 28
22458 28071 28073 28
22459 28071 28074 28
22460 28071 28075 28
22461 28076 28077 28
22462 28076 28078 28
22463 28076 28079 28
22464 28076 28080 28
22465 28081 28082 28
22466 28081 28083 28
22467 28081 28084 28
22468 28081 28085 28
22469 28086 28087 28
22470 28086 28088 28
22471 28086 28089 28
22472 28086 28090 28
22473 28091 28092 28
22474 28091 28093 28
22475 28091 28094 28
22476 28091 28095 28
22477 28096 28097 28
22478 28096 28098 28
22479 28096 28099 28
22480 28096 28100 28
22481 28101 28102 28
22482 28101 28103 28
22483 28101 28104 28
22484 28101 28105 28
22485 28106 28107 28
22486 28106 28108 28
22487 28106 28109 28
22488 28106 28110 28
22489 28111 28112 28
22490 28111 28113 28
22491 28111 28114 28
22492 28111 28115 28
22493 28116 28117 28
22494 28116 28118 28
22495 28116 28119 28
22496 28116 28120 28
22497 28121 28122 28
22498 28121 28123 28
22499 28121 28124 28
22500 28121 28125 28
22501 28126 28127 28
22502 28126 28128 28
22503 28126 28129 28
22504 28126 28130 28
22505 28131 28132 28
22506 28131 28133 28
22507 28131 28134 28
22508 28131 28135 28
22509 28136 28137 28
22510 28136 28138 28
22511 28136 28139 28
22512 28136 28140 28
22513 28141 28142 28
22514 28141 28143 28
22515 28141 28144 28
22516 28141 28145 28
22517 28146 28147 28
22518 28146 28148 28
22519 28146 28149 28
22520 28146 28150 28
22521 28151 28152 28
22522 28151 28153 28
22523 28151 28154 28
22524 28151 28155 28
22525 28156 28157 28
22526 28156 28158 28
22527 28156 28159 28
22528 28156 28160 28
22529 28161 28162 28
22530 28161 28163 28
22531 28161 28164 28
22532 28161 28165 28
22533 28166 28167 28
22534 28166 28168 28
22535 28166 28169 28
22536 28166 28170 28
22537 28171 28172 28
22538 28171 28173 28
22539 28171 28174 28
22540 28171 28175 28
22541 28176 28177 28
22542 28176 28178 28
22543 28176 28179 28
22544 28176 28180 28
22545 28181 28182 28
22546 28181 28183 28
22547 28181 28184 28
22548 28181 28185 28
22549 28186 28187 28
22550 28186 28188 28
22551 28186 28189 28
22552 28186 28190 28
22553 28191 28192 28
22554 28191 28193 28
22555 28191 28194 28
22556 28191 28195 28
22557 28196 28197 28
22558 28196 28198 28
22559 28196 28199 28
22560 28196 28200 28
22561 28201 28202 28
22562 28201 28203 28
22563 28201 28204 28
22564 28201 28205 28
22565 28206 28207 28
22566 28206 28208 28
22567 28206 28209 28
22568 28206 28210 28
22569 28211 28212 28
22570 28211 28213 28
22571 28211 28214 28
22572 28211 28215 28
22573 28216 28217 28
22574 28216 28218 28
22575 28216 28219 28
22576 28216 28220 28
22577 28221 28222 28
22578 28221 28223 28
22579 28221 28224 28
22580 28221 28225 28
22581 28226 28227 28
22582 28226 28228 28
22583 28226 28229 28
22584 28226 28230 28
22585 28231 28232 28
22586 28231 28233 28
22587 28231 28234 28
22588 28231 28235 28
22589 28236 28237 28
22590 28236 28238 28
22591 28236 28239 28
22592 28236 28240 28
22593 28241 28242 28
22594 28241 28243 28
22595 28241 28244 28
22596 28241 28245 28
22597 28246 28247 28
22598 28246 28248 28
22599 28246 28249 28
22600 28246 28250 28
22601 28251 28252 28
22602 28251 28253 28
22603 28251 28254 28
22604 28251 28255 28
22605 28256 28257 28
22606 28256 28258 28
22607 28256 28259 28
22608 28256 28260 28
22609 28261 28262 28
22610 28261 28263 28
22611 28261 28264 28
22612 28261 28265 28
22613 28266 28267 28
22614 28266 28268 28
22615 28266 28269 28
22616 28266 28270 28
22617 28271 28272 28
22618 28271 28273 28
22619 28271 28274 28
22620 28271 28275 28
22621 28276 28277 28
22622 28276 28278 28
22623 28276 28279 28
22624 28276 28280 28
22625 28281 28282 28
22626 28281 28283 28
22627 28281 28284 28
22628 28281 28285 28
22629 28286 28287 28
22630 28286 28288 28
22631 28286 28289 28
22632 28286 28290 28
22633 28291 28292 28
22634 28291 28293 28
22635 28291 28294 28
22636 28291 28295 28
22637 28296 28297 28
22638 28296 28298 28
22639 28296 28299 28
22640 28296 28300 28
22641 28301 28302 28
22642 28301 28303 28
22643 28301 28304 28
22644 28301 28305 28
22645 28306 28307 28
22646 28306 28308 28
22647 28306 28309 28
22648 28306 28310 28
22649 28311 28312 28
22650 28311 28313 28
22651 28311 28314 28
22652 28311 28315 28
22653 28316 28317 28
22654 28316 28318 28
22655 28316 28319 28
22656 28316 28320 28
22657 28321 28322 28
22658 28321 28323 28
22659 28321 28324 28
22660 28321 28325 28
22661 28326 28327 28
22662 28326 28328 28
22663 28326 28329 28
22664 28326 28330 28
22665 28331 28332 28
22666 28331 28333 28
22667 28331 28334 28
22668 28331 28335 28
22669 28336 28337 28
22670 28336 28338 28
22671 28336 28339 28
22672 28336 28340 28
22673 28341 28342 28
22674 28341 28343 28
22675 28341 28344 28
22676 28341 28345 28
22677 28346 28347 28
22678 28346 28348 28
22679 28346 28349 28
22680 28346 28350 28
22681 28351 28352 28
22682 28351 28353 28
22683 28351 28354 28
22684 28351 28355 28
22685 28356 28357 28
22686 28356 28358 28
22687 28356 28359 28
22688 28356 28360 28
22689 28361 28362 28
22690 28361 28363 28
22691 28361 28364 28
22692 28361 28365 28
22693 28366 28367 28
22694 28366 28368 28
22695 28366 28369 28
22696 28366 28370 28
22697 28371 28372 28
22698 28371 28373 28
22699 28371 28374 28
22700 28371 28375 28
22701 28376 28377 28
22702 28376 28378 28
22703 28376 28379 28
22704 28376 28380 28
22705 28381 28382 28
22706 28381 28383 28
22707 28381 28384 28
22708 28381 28385 28
22709 28386 28387 28
22710 28386 28388 28
22711 28386 28389 28
22712 28386 28390 28
22713 28391 28392 28
22714 28391 28393 28
22715 28391 28394 28
22716 28391 28395 28
22717 28396 28397 28
22718 28396 28398 28
22719 28396 28399 28
22720 28396 28400 28
22721 28401 28402 28
22722 28401 28403 28
22723 28401 28404 28
22724 28401 28405 28
22725 28406 28407 28
22726 28406 28408 28
22727 28406 28409 28
22728 28406 28410 28
22729 28411 28412 28
22730 28411 28413 28
22731 28411 28414 28
22732 28411 28415 28
22733 28416 28417 28
22734 28416 28418 28
22735 28416 28419 28
22736 28416 28420 28
22737 28421 28422 28
22738 28421 28423 28
22739 28421 28424 28
22740 28421 28425 28
22741 28426 28427 28
22742 28426 28428 28
22743 28426 28429 28
22744 28426 28430 28
22745 28431 28432 28
22746 28431 28433 28
22747 28431 28434 28
22748 28431 28435 28
22749 28436 28437 28
22750 28436 28438 28
22751 28436 28439 28
22752 28436 28440 28
22753 28441 28442 28
22754 28441 28443 28
22755 28441 28444 28
22756 28441 28445 28
22757 28446 28447 28
22758 28446 28448 28
22759 28446 28449 28
22760 28446 28450 28
22761 28451 28452 28
22762 28451 28453 28
22763 28451 28454 28
22764 28451 28455 28
22765 28456 28457 28
22766 28456 28458 28
22767 28456 28459 28
22768 28456 28460 28
22769 28461 28462 28
22770 28461 28463 28
22771 28461 28464 28
22772 28461 28465 28
22773 28466 28467 28
22774 28466 28468 28
22775 28466 28469 28
22776 28466 28470 28
22777 28471 28472 28
22778 28471 28473 28
22779 28471 28474 28
22780 28471 28475 28
22781 28476 28477 28
22782 28476 28478 28
22783 28476 28479 28
22784 28476 28480 28
22785 28481 28482 28
22786 28481 28483 28
22787 28481 28484 28
22788 28481 28485 28
22789 28486 28487 28
22790 28486 28488 28
22791 28486 28489 28
22792 28486 28490 28
22793 28491 28492 28
22794 28491 28493 28
22795 28491 28494 28
22796 28491 28495 28
22797 28496 28497 28
22798 28496 28498 28
22799 28496 28499 28
22800 28496 28500 28
22801 28501 28502 28
22802 28501 28503 28
22803 28501 28504 28
22804 28501 28505 28
22805 28506 28507 28
22806 28506 28508 28
22807 28506 28509 28
22808 28506 28510 28
22809 28511 28512 28
22810 28511 28513 28
22811 28511 28514 28
22812 28511 28515 28
22813 28516 28517 28
22814 28516 28518 28
22815 28516 28519 28
22816 28516 28520 28
22817 28521 28522 28
22818 28521 28523 28
22819 28521 28524 28
22820 28521 28525 28
22821 28526 28527 28
22822 28526 28528 28
22823 28526 28529 28
22824 28526 28530 28
22825 28531 28532 28
22826 28531 28533 28
22827 28531 28534 28
22828 28531 28535 28
22829 28536 28537 28
22830 28536 28538 28
22831 28536 28539 28
22832 28536 28540 28
22833 28541 28542 28
22834 28541 28543 28
22835 28541 28544 28
22836 28541 28545 28
22837 28546 28547 28
22838 28546 28548 28
22839 28546 28549 28
22840 28546 28550 28
22841 28551 28552 28
22842 28551 28553 28
22843 28551 28554 28
22844 28551 28555 28
22845 28556 28557 28
22846 28556 28558 28
22847 28556 28559 28
22848 28556 28560 28
22849 28561 28562 28
22850 28561 28563 28
22851 28561 28564 28
22852 28561 28565 28
22853 28566 28567 28
22854 28566 28568 28
22855 28566 28569 28
22856 28566 28570 28
22857 28571 28572 28
22858 28571 28573 28
22859 28571 28574 28
22860 28571 28575 28
22861 28576 28577 28
22862 28576 28578 28
22863 28576 28579 28
22864 28576 28580 28
22865 28581 28582 28
22866 28581 28583 28
22867 28581 28584 28
22868 28581 28585 28
22869 28586 28587 28
22870 28586 28588 28
22871 28586 28589 28
22872 28586 28590 28
22873 28591 28592 28
22874 28591 28593 28
22875 28591 28594 28
22876 28591 28595 28
22877 28596 28597 28
22878 28596 28598 28
22879 28596 28599 28
22880 28596 28600 28
22881 28601 28602 28
22882 28601 28603 28
22883 28601 28604 28
22884 28601 28605 28
22885 28606 28607 28
22886 28606 28608 28
22887 28606 28609 28
22888 28606 28610 28
22889 28611 28612 28
22890 28611 28613 28
22891 28611 28614 28
22892 28611 28615 28
22893 28616 28617 28
22894 28616 28618 28
22895 28616 28619 28
22896 28616 28620 28
22897 28621 28622 28
22898 28621 28623 28
22899 28621 28624 28
22900 28621 28625 28
22901 28626 28627 28
22902 28626 28628 28
22903 28626 28629 28
22904 28626 28630 28
22905 28631 28632 28
22906 28631 28633 28
22907 28631 28634 28
22908 28631 28635 28
22909 28636 28637 28
22910 28636 28638 28
22911 28636 28639 28
22912 28636 28640 28
22913 28641 28642 28
22914 28641 28643 28
22915 28641 28644 28
22916 28641 28645 28
22917 28646 28647 28
22918 28646 28648 28
22919 28646 28649 28
22920 28646 28650 28
22921 28651 28652 28
22922 28651 28653 28
22923 28651 28654 28
22924 28651 28655 28
22925 28656 28657 28
22926 28656 28658 28
22927 28656 28659 28
22928 28656 28660 28
22929 28661 28662 28
22930 28661 28663 28
22931 28661 28664 28
22932 28661 28665 28
22933 28666 28667 28
22934 28666 28668 28
22935 28666 28669 28
22936 28666 28670 28
22937 28671 28672 28
22938 28671 28673 28
22939 28671 28674 28
22940 28671 28675 28
22941 28676 28677 28
22942 28676 28678 28
22943 28676 28679 28
22944 28676 28680 28
22945 28681 28682 28
22946 28681 28683 28
22947 28681 28684 28
22948 28681 28685 28
22949 28686 28687 28
22950 28686 28688 28
22951 28686 28689 28
22952 28686 28690 28
22953 28691 28692 28
22954 28691 28693 28
22955 28691 28694 28
22956 28691 28695 28
22957 28696 28697 28
22958 28696 28698 28
22959 28696 28699 28
22960 28696 28700 28
22961 28701 28702 28
22962 28701 28703 28
22963 28701 28704 28
22964 28701 28705 28
22965 28706 28707 28
22966 28706 28708 28
22967 28706 28709 28
22968 28706 28710 28
22969 28711 28712 28
22970 28711 28713 28
22971 28711 28714 28
22972 28711 28715 28
22973 28716 28717 28
22974 28716 28718 28
22975 28716 28719 28
22976 28716 28720 28
22977 28721 28722 28
22978 28721 28723 28
22979 28721 28724 28
22980 28721 28725 28
22981 28726 28727 28
22982 28726 28728 28
22983 28726 28729 28
22984 28726 28730 28
22985 28731 28732 28
22986 28731 28733 28
22987 28731 28734 28
22988 28731 28735 28
22989 28736 28737 28
22990 28736 28738 28
22991 28736 28739 28
22992 28736 28740 28
22993 28741 28742 28
22994 28741 28743 28
22995 28741 28744 28
22996 28741 28745 28
22997 28746 28747 28
22998 28746 28748 28
22999 28746 28749 28
23000 28746 28750 28
23001 28751 28752 28
23002 28751 28753 28
23003 28751 28754 28
23004 28751 28755 28
23005 28756 28757 28
23006 28756 28758 28
23007 28756 28759 28
23008 28756 28760 28
23009 28761 28762 28
23010 28761 28763 28
23011 28761 28764 28
23012 28761 28765 28
23013 28766 28767 28
23014 28766 28768 28
23015 28766 28769 28
23016 28766 28770 28
23017 28771 28772 28
23018 28771 28773 28
23019 28771 28774 28
23020 28771 28775 28
23021 28776 28777 28
23022 28776 28778 28
23023 28776 28779 28
23024 28776 28780 28
23025 28781 28782 28
23026 28781 28783 28
23027 28781 28784 28
23028 28781 28785 28
23029 28786 28787 28
23030 28786 28788 28
23031 28786 28789 28
23032 28786 28790 28
23033 28791 28792 28
23034 28791 28793 28
23035 28791 28794 28
23036 28791 28795 28
23037 28796 28797 28
23038 28796 28798 28
23039 28796 28799 28
23040 28796 28800 28
23041 28801 28802 28
23042 28801 28803 28
23043 28801 28804 28
23044 28801 28805 28
23045 28806 28807 28
23046 28806 28808 28
23047 28806 28809 28
23048 28806 28810 28
23049 28811 28812 28
23050 28811 28813 28
23051 28811 28814 28
23052 28811 28815 28
23053 28816 28817 28
23054 28816 28818 28
23055 28816 28819 28
23056 28816 28820 28
23057 28821 28822 28
23058 28821 28823 28
23059 28821 28824 28
23060 28821 28825 28
23061 28826 28827 28
23062 28826 28828 28
23063 28826 28829 28
23064 28826 28830 28
23065 28831 28832 28
23066 28831 28833 28
23067 28831 28834 28
23068 28831 28835 28
23069 28836 28837 28
23070 28836 28838 28
23071 28836 28839 28
23072 28836 28840 28
23073 28841 28842 28
23074 28841 28843 28
23075 28841 28844 28
23076 28841 28845 28
23077 28846 28847 28
23078 28846 28848 28
23079 28846 28849 28
23080 28846 28850 28
23081 28851 28852 28
23082 28851 28853 28
23083 28851 28854 28
23084 28851 28855 28
23085 28856 28857 28
23086 28856 28858 28
23087 28856 28859 28
23088 28856 28860 28
23089 28861 28862 28
23090 28861 28863 28
23091 28861 28864 28
23092 28861 28865 28
23093 28866 28867 28
23094 28866 28868 28
23095 28866 28869 28
23096 28866 28870 28
23097 28871 28872 28
23098 28871 28873 28
23099 28871 28874 28
23100 28871 28875 28
23101 28876 28877 28
23102 28876 28878 28
23103 28876 28879 28
23104 28876 28880 28
23105 28881 28882 28
23106 28881 28883 28
23107 28881 28884 28
23108 28881 28885 28
23109 28886 28887 28
23110 28886 28888 28
23111 28886 28889 28
23112 28886 28890 28
23113 28891 28892 28
23114 28891 28893 28
23115 28891 28894 28
23116 28891 28895 28
23117 28896 28897 28
23118 28896 28898 28
23119 28896 28899 28
23120 28896 28900 28
23121 28901 28902 28
23122 28901 28903 28
23123 28901 28904 28
23124 28901 28905 28
23125 28906 28907 28
23126 28906 28908 28
23127 28906 28909 28
23128 28906 28910 28
23129 28911 28912 28
23130 28911 28913 28
23131 28911 28914 28
23132 28911 28915 28
23133 28916 28917 28
23134 28916 28918 28
23135 28916 28919 28
23136 28916 28920 28
23137 28921 28922 28
23138 28921 28923 28
23139 28921 28924 28
23140 28921 28925 28
23141 28926 28927 28
23142 28926 28928 28
23143 28926 28929 28
23144 28926 28930 28
23145 28931 28932 28
23146 28931 28933 28
23147 28931 28934 28
23148 28931 28935 28
23149 28936 28937 28
23150 28936 28938 28
23151 28936 28939 28
23152 28936 28940 28
23153 28941 28942 28
23154 28941 28943 28
23155 28941 28944 28
23156 28941 28945 28
23157 28946 28947 28
23158 28946 28948 28
23159 28946 28949 28
23160 28946 28950 28
23161 28951 28952 28
23162 28951 28953 28
23163 28951 28954 28
23164 28951 28955 28
23165 28956 28957 28
23166 28956 28958 28
23167 28956 28959 28
23168 28956 28960 28
23169 28961 28962 28
23170 28961 28963 28
23171 28961 28964 28
23172 28961 28965 28
23173 28966 28967 28
23174 28966 28968 28
23175 28966 28969 28
23176 28966 28970 28
23177 28971 28972 28
23178 28971 28973 28
23179 28971 28974 28
23180 28971 28975 28
23181 28976 28977 28
23182 28976 28978 28
23183 28976 28979 28
23184 28976 28980 28
23185 28981 28982 28
23186 28981 28983 28
23187 28981 28984 28
23188 28981 28985 28
23189 28986 28987 28
23190 28986 28988 28
23191 28986 28989 28
23192 28986 28990 28
23193 28991 28992 28
23194 28991 28993 28
23195 28991 28994 28
23196 28991 28995 28
23197 28996 28997 28
23198 28996 28998 28
23199 28996 28999 28
23200 28996 29000 28
23201 29001 29002 28
23202 29001 29003 28
23203 29001 29004 28
23204 29001 29005 28
23205 29006 29007 28
23206 29006 29008 28
23207 29006 29009 28
23208 29006 29010 28
23209 29011 29012 28
23210 29011 29013 28
23211 29011 29014 28
23212 29011 29015 28
23213 29016 29017 28
23214 29016 29018 28
23215 29016 29019 28
23216 29016 29020 28
23217 29021 29022 28
23218 29021 29023 28
23219 29021 29024 28
23220 29021 29025 28
23221 29026 29027 28
23222 29026 29028 28
23223 29026 29029 28
23224 29026 29030 28
23225 29031 29032 28
23226 29031 29033 28
23227 29031 29034 28
23228 29031 29035 28
23229 29036 29037 28
23230 29036 29038 28
23231 29036 29039 28
23232 29036 29040 28
23233 29041 29042 28
23234 29041 29043 28
23235 29041 29044 28
23236 29041 29045 28
23237 29046 29047 28
23238 29046 29048 28
23239 29046 29049 28
23240 29046 29050 28
23241 29051 29052 28
23242 29051 29053 28
23243 29051 29054 28
23244 29051 29055 28
23245 29056 29057 28
23246 29056 29058 28
23247 29056 29059 28
23248 29056 29060 28
23249 29061 29062 28
23250 29061 29063 28
23251 29061 29064 28
23252 29061 29065 28
23253 29066 29067 28
23254 29066 29068 28
23255 29066 29069 28
23256 29066 29070 28
23257 29071 29072 28
23258 29071 29073 28
23259 29071 29074 28
23260 29071 29075 28
23261 29076 29077 28
23262 29076 29078 28
23263 29076 29079 28
23264 29076 29080 28
23265 29081 29082 28
23266 29081 29083 28
23267 29081 29084 28
23268 29081 29085 28
23269 29086 29087 28
23270 29086 29088 28
23271 29086 29089 28
23272 29086 29090 28
23273 29091 29092 28
23274 29091 29093 28
23275 29091 29094 28
23276 29091 29095 28
23277 29096 29097 28
23278 29096 29098 28
23279 29096 29099 28
23280 29096 29100 28
23281 29101 29102 28
23282 29101 29103 28
23283 29101 29104 28
23284 29101 29105 28
23285 29106 29107 28
23286 29106 29108 28
23287 29106 29109 28
23288 29106 29110 28
23289 29111 29112 28
23290 29111 29113 28
23291 29111 29114 28
23292 29111 29115 28
23293 29116 29117 28
23294 29116 29118 28
23295 29116 29119 28
23296 29116 29120 28
23297 29121 29122 28
23298 29121 29123 28
23299 29121 29124 28
23300 29121 29125 28
23301 29126 29127 28
23302 29126 29128 28
23303 29126 29129 28
23304 29126 29130 28
23305 29131 29132 28
23306 29131 29133 28
23307 29131 29134 28
23308 29131 29135 28
23309 29136 29137 28
23310 29136 29138 28
23311 29136 29139 28
23312 29136 29140 28
23313 29141 29142 28
23314 29141 29143 28
23315 29141 29144 28
23316 29141 29145 28
23317 29146 29147 28
23318 29146 29148 28
23319 29146 29149 28
23320 29146 29150 28
23321 29151 29152 28
23322 29151 29153 28
23323 29151 29154 28
23324 29151 29155 28
23325 29156 29157 28
23326 29156 29158 28
23327 29156 29159 28
23328 29156 29160 28
23329 29161 29162 28
23330 29161 29163 28
23331 29161 29164 28
23332 29161 29165 28
23333 29166 29167 28
23334 29166 29168 28
23335 29166 29169 28
23336 29166 29170 28
23337 29171 29172 28
23338 29171 29173 28
23339 29171 29174 28
23340 29171 29175 28
23341 29176 29177 28
23342 29176 29178 28
23343 29176 29179 28
23344 29176 29180 28
23345 29181 29182 28
23346 29181 29183 28
23347 29181 29184 28
23348 29181 29185 28
23349 29186 29187 28
23350 29186 29188 28
23351 29186 29189 28
23352 29186 29190 28
23353 29191 29192 28
23354 29191 29193 28
23355 29191 29194 28
23356 29191 29195 28
23357 29196 29197 28
23358 29196 29198 28
23359 29196 29199 28
23360 29196 29200 28
23361 29201 29202 28
23362 29201 29203 28
23363 29201 29204 28
23364 29201 29205 28
23365 29206 29207 28
23366 29206 29208 28
23367 29206 29209 28
23368 29206 29210 28
23369 29211 29212 28
23370 29211 29213 28
23371 29211 29214 28
23372 29211 29215 28
23373 29216 29217 28
23374 29216 29218 28
23375 29216 29219 28
23376 29216 29220 28
23377 29221 29222 28
23378 29221 29223 28
23379 29221 29224 28
23380 29221 29225 28
23381 29226 29227 28
23382 29226 29228 28
23383 29226 29229 28
23384 29226 29230 28
23385 29231 29232 28
23386 29231 29233 28
23387 29231 29234 28
23388 29231 29235 28
23389 29236 29237 28
23390 29236 29238 28
23391 29236 29239 28
23392 29236 29240 28
23393 29241 29242 28
23394 29241 29243 28
23395 29241 29244 28
23396 29241 29245 28
23397 29246 29247 28
23398 29246 29248 28
23399 29246 29249 28
23400 29246 29250 28
23401 29251 29252 28
23402 29251 29253 28
23403 29251 29254 28
23404 29251 29255 28
23405 29256 29257 28
23406 29256 29258 28
23407 29256 29259 28
23408 29256 29260 28
23409 29261 29262 28
23410 29261 29263 28
23411 29261 29264 28
23412 29261 29265 28
23413 29266 29267 28
23414 29266 29268 28
23415 29266 29269 28
23416 29266 29270 28
23417 29271 29272 28
23418 29271 29273 28
23419 29271 29274 28
23420 29271 29275 28
23421 29276 29277 28
23422 29276 29278 28
23423 29276 29279 28
23424 29276 29280 28
23425 29281 29282 28
23426 29281 29283 28
23427 29281 29284 28
23428 29281 29285 28
23429 29286 29287 28
23430 29286 29288 28
23431 29286 29289 28
23432 29286 29290 28
23433 29291 29292 28
23434 29291 29293 28
23435 29291 29294 28
23436 29291 29295 28
23437 29296 29297 28
23438 29296 29298 28
23439 29296 29299 28
23440 29296 29300 28
23441 29301 29302 28
23442 29301 29303 28
23443 29301 29304 28
23444 29301 29305 28
23445 29306 29307 28
23446 29306 29308 28
23447 29306 29309 28
23448 29306 29310 28
23449 29311 29312 28
23450 29311 29313 28
23451 29311 29314 28
23452 29311 29315 28
23453 29316 29317 28
23454 29316 29318 28
23455 29316 29319 28
23456 29316 29320 28
23457 29321 29322 28
23458 29321 29323 28
23459 29321 29324 28
23460 29321 29325 28
23461 29326 29327 28
23462 29326 29328 28
23463 29326 29329 28
23464 29326 29330 28
23465 29331 29332 28
23466 29331 29333 28
23467 29331 29334 28
23468 29331 29335 28
23469 29336 29337 28
23470 29336 29338 28
23471 29336 29339 28
23472 29336 29340 28
23473 29341 29342 28
23474 29341 29343 28
23475 29341 29344 28
23476 29341 29345 28
23477 29346 29347 28
23478 29346 29348 28
23479 29346 29349 28
23480 29346 29350 28
23481 29351 29352 28
23482 29351 29353 28
23483 29351 29354 28
23484 29351 29355 28
23485 29356 29357 28
23486 29356 29358 28
23487 29356 29359 28
23488 29356 29360 28
23489 29361 29362 28
23490 29361 29363 28
23491 29361 29364 28
23492 29361 29365 28
23493 29366 29367 28
23494 29366 29368 28
23495 29366 29369 28
23496 29366 29370 28
23497 29371 29372 28
23498 29371 29373 28
23499 29371 29374 28
23500 29371 29375 28
23501 29376 29377 28
23502 29376 29378 28
23503 29376 29379 28
23504 29376 29380 28
23505 29381 29382 28
23506 29381 29383 28
23507 29381 29384 28
23508 29381 29385 28
23509 29386 29387 28
23510 29386 29388 28
23511 29386 29389 28
23512 29386 29390 28
23513 29391 29392 28
23514 29391 29393 28
23515 29391 29394 28
23516 29391 29395 28
23517 29396 29397 28
23518 29396 29398 28
23519 29396 29399 28
23520 29396 29400 28
23521 29401 29402 28
23522 29401 29403 28
23523 29401 29404 28
23524 29401 29405 28
23525 29406 29407 28
23526 29406 29408 28
23527 29406 29409 28
23528 29406 29410 28
23529 29411 29412 28
23530 29411 29413 28
23531 29411 29414 28
23532 29411 29415 28
23533 29416 29417 28
23534 29416 29418 28
23535 29416 29419 28
23536 29416 29420 28
23537 29421 29422 28
23538 29421 29423 28
23539 29421 29424 28
23540 29421 29425 28
23541 29426 29427 28
23542 29426 29428 28
23543 29426 29429 28
23544 29426 29430 28
23545 29431 29432 28
23546 29431 29433 28
23547 29431 29434 28
23548 29431 29435 28
23549 29436 29437 28
23550 29436 29438 28
23551 29436 29439 28
23552 29436 29440 28
23553 29441 29442 28
23554 29441 29443 28
23555 29441 29444 28
23556 29441 29445 28
23557 29446 29447 28
23558 29446 29448 28
23559 29446 29449 28
23560 29446 29450 28
23561 29451 29452 28
23562 29451 29453 28
23563 29451 29454 28
23564 29451 29455 28
23565 29456 29457 28
23566 29456 29458 28
23567 29456 29459 28
23568 29456 29460 28
23569 29461 29462 28
23570 29461 29463 28
23571 29461 29464 28
23572 29461 29465 28
23573 29466 29467 28
23574 29466 29468 28
23575 29466 29469 28
23576 29466 29470 28
23577 29471 29472 28
23578 29471 29473 28
23579 29471 29474 28
23580 29471 29475 28
23581 29476 29477 28
23582 29476 29478 28
23583 29476 29479 28
23584 29476 29480 28
23585 29481 29482 28
23586 29481 29483 28
23587 29481 29484 28
23588 29481 29485 28
23589 29486 29487 28
23590 29486 29488 28
23591 29486 29489 28
23592 29486 29490 28
23593 29491 29492 28
23594 29491 29493 28
23595 29491 29494 28
23596 29491 29495 28
23597 29496 29497 28
23598 29496 29498 28
23599 29496 29499 28
23600 29496 29500 28
23601 29501 29502 28
23602 29501 29503 28
23603 29501 29504 28
23604 29501 29505 28
23605 29506 29507 28
23606 29506 29508 28
23607 29506 29509 28
23608 29506 29510 28
23609 29511 29512 28
23610 29511 29513 28
23611 29511 29514 28
23612 29511 29515 28
23613 29516 29517 28
23614 29516 29518 28
23615 29516 29519 28
23616 29516 29520 28
23617 29521 29522 28
23618 29521 29523 28
23619 29521 29524 28
23620 29521 29525 28
23621 29526 29527 28
23622 29526 29528 28
23623 29526 29529 28
23624 29526 29530 28
23625 29531 29532 28
23626 29531 29533 28
23627 29531 29534 28
23628 29531 29535 28
23629 29536 29537 28
23630 29536 29538 28
23631 29536 29539 28
23632 29536 29540 28
23633 29541 29542 28
23634 29541 29543 28
23635 29541 29544 28
23636 29541 29545 28
23637 29546 29547 28
23638 29546 29548 28
23639 29546 29549 28
23640 29546 29550 28
23641 29551 29552 28
23642 29551 29553 28
23643 29551 29554 28
23644 29551 29555 28
23645 29556 29557 28
23646 29556 29558 28
23647 29556 29559 28
23648 29556 29560 28
23649 29561 29562 28
23650 29561 29563 28
23651 29561 29564 28
23652 29561 29565 28
23653 29566 29567 28
23654 29566 29568 28
23655 29566 29569 28
23656 29566 29570 28
23657 29571 29572 28
23658 29571 29573 28
23659 29571 29574 28
23660 29571 29575 28
23661 29576 29577 28
23662 29576 29578 28
23663 29576 29579 28
23664 29576 29580 28
23665 29581 29582 28
23666 29581 29583 28
23667 29581 29584 28
23668 29581 29585 28
23669 29586 29587 28
23670 29586 29588 28
23671 29586 29589 28
23672 29586 29590 28
23673 29591 29592 28
23674 29591 29593 28
23675 29591 29594 28
23676 29591 29595 28
23677 29596 29597 28
23678 29596 29598 28
23679 29596 29599 28
23680 29596 29600 28
23681 29601 29602 28
23682 29601 29603 28
23683 29601 29604 28
23684 29601 29605 28
23685 29606 29607 28
23686 29606 29608 28
23687 29606 29609 28
23688 29606 29610 28
23689 29611 29612 28
23690 29611 29613 28
23691 29611 29614 28
23692 29611 29615 28
23693 29616 29617 28
23694 29616 29618 28
23695 29616 29619 28
23696 29616 29620 28
23697 29621 29622 28
23698 29621 29623 28
23699 29621 29624 28
23700 29621 29625 28
23701 29626 29627 28
23702 29626 29628 28
23703 29626 29629 28
23704 29626 29630 28
23705 29631 29632 28
23706 29631 29633 28
23707 29631 29634 28
23708 29631 29635 28
23709 29636 29637 28
23710 29636 29638 28
23711 29636 29639 28
23712 29636 29640 28
23713 29641 29642 28
23714 29641 29643 28
23715 29641 29644 28
23716 29641 29645 28
23717 29646 29647 28
23718 29646 29648 28
23719 29646 29649 28
23720 29646 29650 28
23721 29651 29652 28
23722 29651 29653 28
23723 29651 29654 28
23724 29651 29655 28
23725 29656 29657 28
23726 29656 29658 28
23727 29656 29659 28
23728 29656 29660 28
23729 29661 29662 28
23730 29661 29663 28
23731 29661 29664 28
23732 29661 29665 28
23733 29666 29667 28
23734 29666 29668 28
23735 29666 29669 28
23736 29666 29670 28
23737 29671 29672 28
23738 29671 29673 28
23739 29671 29674 28
23740 29671 29675 28
23741 29676 29677 28
23742 29676 29678 28
23743 29676 29679 28
23744 29676 29680 28
23745 29681 29682 28
23746 29681 29683 28
23747 29681 29684 28
23748 29681 29685 28
23749 29686 29687 28
23750 29686 29688 28
23751 29686 29689 28
23752 29686 29690 28
23753 29691 29692 28
23754 29691 29693 28
23755 29691 29694 28
23756 29691 29695 28
23757 29696 29697 28
23758 29696 29698 28
23759 29696 29699 28
23760 29696 29700 28
23761 29701 29702 28
23762 29701 29703 28
23763 29701 29704 28
23764 29701 29705 28
23765 29706 29707 28
23766 29706 29708 28
23767 29706 29709 28
23768 29706 29710 28
23769 29711 29712 28
23770 29711 29713 28
23771 29711 29714 28
23772 29711 29715 28
23773 29716 29717 28
23774 29716 29718 28
23775 29716 29719 28
23776 29716 29720 28
23777 29721 29722 28
23778 29721 29723 28
23779 29721 29724 28
23780 29721 29725 28
23781 29726 29727 28
23782 29726 29728 28
23783 29726 29729 28
23784 29726 29730 28
23785 29731 29732 28
23786 29731 29733 28
23787 29731 29734 28
23788 29731 29735 28
23789 29736 29737 28
23790 29736 29738 28
23791 29736 29739 28
23792 29736 29740 28
23793 29741 29742 28
23794 29741 29743 28
23795 29741 29744 28
23796 29741 29745 28
23797 29746 29747 28
23798 29746 29748 28
23799 29746 29749 28
23800 29746 29750 28
23801 29751 29752 28
23802 29751 29753 28
23803 29751 29754 28
23804 29751 29755 28
23805 29756 29757 28
23806 29756 29758 28
23807 29756 29759 28
23808 29756 29760 28
23809 29761 29762 28
23810 29761 29763 28
23811 29761 29764 28
23812 29761 29765 28
23813 29766 29767 28
23814 29766 29768 28
23815 29766 29769 28
23816 29766 29770 28
23817 29771 29772 28
23818 29771 29773 28
23819 29771 29774 28
23820 29771 29775 28
23821 29776 29777 28
23822 29776 29778 28
23823 29776 29779 28
23824 29776 29780 28
23825 29781 29782 28
23826 29781 29783 28
23827 29781 29784 28
23828 29781 29785 28
23829 29786 29787 28
23830 29786 29788 28
23831 29786 29789 28
23832 29786 29790 28
23833 29791 29792 28
23834 29791 29793 28
23835 29791 29794 28
23836 29791 29795 28
23837 29796 29797 28
23838 29796 29798 28
23839 29796 29799 28
23840 29796 29800 28
23841 29801 29802 28
23842 29801 29803 28
23843 29801 29804 28
23844 29801 29805 28
23845 29806 29807 28
23846 29806 29808 28
23847 29806 29809 28
23848 29806 29810 28
23849 29811 29812 28
23850 29811 29813 28
23851 29811 29814 28
23852 29811 29815 28
23853 29816 29817 28
23854 29816 29818 28
23855 29816 29819 28
23856 29816 29820 28
23857 29821 29822 28
23858 29821 29823 28
23859 29821 29824 28
23860 29821 29825 28
23861 29826 29827 28
23862 29826 29828 28
23863 29826 29829 28
23864 29826 29830 28
23865 29831 29832 28
23866 29831 29833 28
23867 29831 29834 28
23868 29831 29835 28
23869 29836 29837 28
23870 29836 29838 28
23871 29836 29839 28
23872 29836 29840 28
23873 29841 29842 28
23874 29841 29843 28
23875 29841 29844 28
23876 29841 29845 28
23877 29846 29847 28
23878 29846 29848 28
23879 29846 29849 28
23880 29846 29850 28
23881 29851 29852 28
23882 29851 29853 28
23883 29851 29854 28
23884 29851 29855 28
23885 29856 29857 28
23886 29856 29858 28
23887 29856 29859 28
23888 29856 29860 28
23889 29861 29862 28
23890 29861 29863 28
23891 29861 29864 28
23892 29861 29865 28
23893 29866 29867 28
23894 29866 29868 28
23895 29866 29869 28
23896 29866 29870 28
23897 29871 29872 28
23898 29871 29873 28
23899 29871 29874 28
23900 29871 29875 28
23901 29876 29877 28
23902 29876 29878 28
23903 29876 29879 28
23904 29876 29880 28
23905 29881 29882 28
23906 29881 29883 28
23907 29881 29884 28
23908 29881 29885 28
23909 29886 29887 28
23910 29886 29888 28
23911 29886 29889 28
23912 29886 29890 28
23913 29891 29892 28
23914 29891 29893 28
23915 29891 29894 28
23916 29891 29895 28
23917 29896 29897 28
23918 29896 29898 28
23919 29896 29899 28
23920 29896 29900 28
23921 29901 29902 28
23922 29901 29903 28
23923 29901 29904 28
23924 29901 29905 28
23925 29906 29907 28
23926 29906 29908 28
23927 29906 29909 28
23928 29906 29910 28
23929 29911 29912 28
23930 29911 29913 28
23931 29911 29914 28
23932 29911 29915 28
23933 29916 29917 28
23934 29916 29918 28
23935 29916 29919 28
23936 29916 29920 28
23937 29921 29922 28
23938 29921 29923 28
23939 29921 29924 28
23940 29921 29925 28
23941 29926 29927 28
23942 29926 29928 28
23943 29926 29929 28
23944 29926 29930 28
23945 29931 29932 28
23946 29931 29933 28
23947 29931 29934 28
23948 29931 29935 28
23949 29936 29937 28
23950 29936 29938 28
23951 29936 29939 28
23952 29936 29940 28
23953 29941 29942 28
23954 29941 29943 28
23955 29941 29944 28
23956 29941 29945 28
23957 29946 29947 28
23958 29946 29948 28
23959 29946 29949 28
23960 29946 29950 28
23961 29951 29952 28
23962 29951 29953 28
23963 29951 29954 28
23964 29951 29955 28
23965 29956 29957 28
23966 29956 29958 28
23967 29956 29959 28
23968 29956 29960 28
23969 29961 29962 28
23970 29961 29963 28
23971 29961 29964 28
23972 29961 29965 28
23973 29966 29967 28
23974 29966 29968 28
23975 29966 29969 28
23976 29966 29970 28
23977 29971 29972 28
23978 29971 29973 28
23979 29971 29974 28
23980 29971 29975 28
23981 29976 29977 28
23982 29976 29978 28
23983 29976 29979 28
23984 29976 29980 28
23985 29981 29982 28
23986 29981 29983 28
23987 29981 29984 28
23988 29981 29985 28
23989 29986 29987 28
23990 29986 29988 28
23991 29986 29989 28
23992 29986 29990 28
23993 29991 29992 28
23994 29991 29993 28
23995 29991 29994 28
23996 29991 29995 28
23997 29996 29997 28
23998 29996 29998 28
23999 29996 29999 28
24000 29996 30000 28
24001 30001 30002 28
24002 30001 30003 28
24003 30001 30004 28
24004 30001 30005 28
24005 30006 30007 28
24006 30006 30008 28
24007 30006 30009 28
24008 30006 30010 28
24009 30011 30012 28
24010 30011 30013 28
24011 30011 30014 28
24012 30011 30015 28
24013 30016 30017 28
24014 30016 30018 28
24015 30016 30019 28
24016 30016 30020 28
24017 30021 30022 28
24018 30021 30023 28
24019 30021 30024 28
24020 30021 30025 28
24021 30026 30027 28
24022 30026 30028 28
24023 30026 30029 28
24024 30026 30030 28
24025 30031 30032 28
24026 30031 30033 28
24027 30031 30034 28
24028 30031 30035 28
24029 30036 30037 28
24030 30036 30038 28
24031 30036 30039 28
24032 30036 30040 28
24033 30041 30042 28
24034 30041 30043 28
24035 30041 30044 28
24036 30041 30045 28
24037 30046 30047 28
24038 30046 30048 28
24039 30046 30049 28
24040 30046 30050 28
24041 30051 30052 28
24042 30051 30053 28
24043 30051 30054 28
24044 30051 30055 28
24045 30056 30057 28
24046 30056 30058 28
24047 30056 30059 28
24048 30056 30060 28
24049 30061 30062 28
24050 30061 30063 28
24051 30061 30064 28
24052 30061 30065 28
24053 30066 30067 28
24054 30066 30068 28
24055 30066 30069 28
24056 30066 30070 28
24057 30071 30072 28
24058 30071 30073 28
24059 30071 30074 28
24060 30071 30075 28
24061 30076 30077 28
24062 30076 30078 28
24063 30076 30079 28
24064 30076 30080 28
24065 30081 30082 28
24066 30081 30083 28
24067 30081 30084 28
24068 30081 30085 28
24069 30086 30087 28
24070 30086 30088 28
24071 30086 30089 28
24072 30086 30090 28
24073 30091 30092 28
24074 30091 30093 28
24075 30091 30094 28
24076 30091 30095 28
24077 30096 30097 28
24078 30096 30098 28
24079 30096 30099 28
24080 30096 30100 28
24081 30101 30102 28
24082 30101 30103 28
24083 30101 30104 28
24084 30101 30105 28
24085 30106 30107 28
24086 30106 30108 28
24087 30106 30109 28
24088 30106 30110 28
24089 30111 30112 28
24090 30111 30113 28
24091 30111 30114 28
24092 30111 30115 28
24093 30116 30117 28
24094 30116 30118 28
24095 30116 30119 28
24096 30116 30120 28
24097 30121 30122 28
24098 30121 30123 28
24099 30121 30124 28
24100 30121 30125 28
24101 30126 30127 28
24102 30126 30128 28
24103 30126 30129 28
24104 30126 30130 28
24105 30131 30132 28
24106 30131 30133 28
24107 30131 30134 28
24108 30131 30135 28
24109 30136 30137 28
24110 30136 30138 28
24111 30136 30139 28
24112 30136 30140 28
24113 30141 30142 28
24114 30141 30143 28
24115 30141 30144 28
24116 30141 30145 28
24117 30146 30147 28
24118 30146 30148 28
24119 30146 30149 28
24120 30146 30150 28
24121 30151 30152 28
24122 30151 30153 28
24123 30151 30154 28
24124 30151 30155 28
24125 30156 30157 28
24126 30156 30158 28
24127 30156 30159 28
24128 30156 30160 28
24129 30161 30162 28
24130 30161 30163 28
24131 30161 30164 28
24132 30161 30165 28
24133 30166 30167 28
24134 30166 30168 28
24135 30166 30169 28
24136 30166 30170 28
24137 30171 30172 28
24138 30171 30173 28
24139 30171 30174 28
24140 30171 30175 28
24141 30176 30177 28
24142 30176 30178 28
24143 30176 30179 28
24144 30176 30180 28
24145 30181 30182 28
24146 30181 30183 28
24147 30181 30184 28
24148 30181 30185 28
24149 30186 30187 28
24150 30186 30188 28
24151 30186 30189 28
24152 30186 30190 28
24153 30191 30192 28
24154 30191 30193 28
24155 30191 30194 28
24156 30191 30195 28
24157 30196 30197 28
24158 30196 30198 28
24159 30196 30199 28
24160 30196 30200 28
24161 30201 30202 28
24162 30201 30203 28
24163 30201 30204 28
24164 30201 30205 28
24165 30206 30207 28
24166 30206 30208 28
24167 30206 30209 28
24168 30206 30210 28
24169 30211 30212 28
24170 30211 30213 28
24171 30211 30214 28
24172 30211 30215 28
24173 30216 30217 28
24174 30216 30218 28
24175 30216 30219 28
24176 30216 30220 28
24177 30221 30222 28
24178 30221 30223 28
24179 30221 30224 28
24180 30221 30225 28
24181 30226 30227 28
24182 30226 30228 28
24183 30226 30229 28
24184 30226 30230 28
24185 30231 30232 28
24186 30231 30233 28
24187 30231 30234 28
24188 30231 30235 28
24189 30236 30237 28
24190 30236 30238 28
24191 30236 30239 28
24192 30236 30240 28
24193 30241 30242 28
24194 30241 30243 28
24195 30241 30244 28
24196 30241 30245 28
24197 30246 30247 28
24198 30246 30248 28
24199 30246 30249 28
24200 30246 30250 28
24201 30251 30252 28
24202 30251 30253 28
24203 30251 30254 28
24204 30251 30255 28
24205 30256 30257 28
24206 30256 30258 28
24207 30256 30259 28
24208 30256 30260 28
24209 30261 30262 28
24210 30261 30263 28
24211 30261 30264 28
24212 30261 30265 28
24213 30266 30267 28
24214 30266 30268 28
24215 30266 30269 28
24216 30266 30270 28
24217 30271 30272 28
24218 30271 30273 28
24219 30271 30274 28
24220 30271 30275 28
24221 30276 30277 28
24222 30276 30278 28
24223 30276 30279 28
24224 30276 30280 28
24225 30281 30282 28
24226 30281 30283 28
24227 30281 30284 28
24228 30281 30285 28
24229 30286 30287 28
24230 30286 30288 28
24231 30286 30289 28
24232 30286 30290 28
24233 30291 30292 28
24234 30291 30293 28
24235 30291 30294 28
24236 30291 30295 28
24237 30296 30297 28
24238 30296 30298 28
24239 30296 30299 28
24240 30296 30300 28
24241 30301 30302 28
24242 30301 30303 28
24243 30301 30304 28
24244 30301 30305 28
24245 30306 30307 28
24246 30306 30308 28
24247 30306 30309 28
24248 30306 30310 28
24249 30311 30312 28
24250 30311 30313 28
24251 30311 30314 28
24252 30311 30315 28
24253 30316 30317 28
24254 30316 30318 28
24255 30316 30319 28
24256 30316 30320 28
24257 30321 30322 28
24258 30321 30323 28
24259 30321 30324 28
24260 30321 30325 28
24261 30326 30327 28
24262 30326 30328 28
24263 30326 30329 28
24264 30326 30330 28
24265 30331 30332 28
24266 30331 30333 28
24267 30331 30334 28
24268 30331 30335 28
24269 30336 30337 28
24270 30336 30338 28
24271 30336 30339 28
24272 30336 30340 28
24273 30341 30342 28
24274 30341 30343 28
24275 30341 30344 28
24276 30341 30345 28
24277 30346 30347 28
24278 30346 30348 28
24279 30346 30349 28
24280 30346 30350 28
24281 30351 30352 28
24282 30351 30353 28
24283 30351 30354 28
24284 30351 30355 28
24285 30356 30357 28
24286 30356 30358 28
24287 30356 30359 28
24288 30356 30360 28
24289 30361 30362 28
24290 30361 30363 28
24291 30361 30364 28
24292 30361 30365 28
24293 30366 30367 28
24294 30366 30368 28
24295 30366 30369 28
24296 30366 30370 28
24297 30371 30372 28
24298 30371 30373 28
24299 30371 30374 28
24300 30371 30375 28
24301 30376 30377 28
24302 30376 30378 28
24303 30376 30379 28
24304 30376 30380 28
24305 30381 30382 28
24306 30381 30383 28
24307 30381 30384 28
24308 30381 30385 28
24309 30386 30387 28
24310 30386 30388 28
24311 30386 30389 28
24312 30386 30390 28
24313 30391 30392 28
24314 30391 30393 28
24315 30391 30394 28
24316 30391 30395 28
24317 30396 30397 28
24318 30396 30398 28
24319 30396 30399 28
24320 30396 30400 28
24321 30401 30402 28
24322 30401 30403 28
24323 30401 30404 28
24324 30401 30405 28
24325 30406 30407 28
24326 30406 30408 28
24327 30406 30409 28
24328 30406 30410 28
24329 30411 30412 28
24330 30411 30413 28
24331 30411 30414 28
24332 30411 30415 28
24333 30416 30417 28
24334 30416 30418 28
24335 30416 30419 28
24336 30416 30420 28
24337 30421 30422 28
24338 30421 30423 28
24339 30421 30424 28
24340 30421 30425 28
24341 30426 30427 28
24342 30426 30428 28
24343 30426 30429 28
24344 30426 30430 28
24345 30431 30432 28
24346 30431 30433 28
24347 30431 30434 28
24348 30431 30435 28
24349 30436 30437 28
24350 30436 30438 28
24351 30436 30439 28
24352 30436 30440 28
24353 30441 30442 28
24354 30441 30443 28
24355 30441 30444 28
24356 30441 30445 28
24357 30446 30447 28
24358 30446 30448 28
24359 30446 30449 28
24360 30446 30450 28
24361 30451 30452 28
24362 30451 30453 28
24363 30451 30454 28
24364 30451 30455 28
24365 30456 30457 28
24366 30456 30458 28
24367 30456 30459 28
24368 30456 30460 28
24369 30461 30462 28
24370 30461 30463 28
24371 30461 30464 28
24372 30461 30465 28
24373 30466 30467 28
24374 30466 30468 28
24375 30466 30469 28
24376 30466 30470 28
24377 30471 30472 28
24378 30471 30473 28
24379 30471 30474 28
24380 30471 30475 28
24381 30476 30477 28
24382 30476 30478 28
24383 30476 30479 28
24384 30476 30480 28
24385 30481 30482 28
24386 30481 30483 28
24387 30481 30484 28
24388 30481 30485 28
24389 30486 30487 28
24390 30486 30488 28
24391 30486 30489 28
24392 30486 30490 28
24393 30491 30492 28
24394 30491 30493 28
24395 30491 30494 28
24396 30491 30495 28
24397 30496 30497 28
24398 30496 30498 28
24399 30496 30499 28
24400 30496 30500 28
24401 30501 30502 28
24402 30501 30503 28
24403 30501 30504 28
24404 30501 30505 28
24405 30506 30507 28
24406 30506 30508 28
24407 30506 30509 28
24408 30506 30510 28
24409 30511 30512 28
24410 30511 30513 28
24411 30511 30514 28
24412 30511 30515 28
24413 30516 30517 28
24414 30516 30518 28
24415 30516 30519 28
24416 30516 30520 28
24417 30521 30522 28
24418 30521 30523 28
24419 30521 30524 28
24420 30521 30525 28
24421 30526 30527 28
24422 30526 30528 28
24423 30526 30529 28
24424 30526 30530 28
24425 30531 30532 28
24426 30531 30533 28
24427 30531 30534 28
24428 30531 30535 28
24429 30536 30537 28
24430 30536 30538 28
24431 30536 30539 28
24432 30536 30540 28
24433 30541 30542 28
24434 30541 30543 28
24435 30541 30544 28
24436 30541 30545 28
24437 30546 30547 28
24438 30546 30548 28
24439 30546 30549 28
24440 30546 30550 28
24441 30551 30552 28
24442 30551 30553 28
24443 30551 30554 28
24444 30551 30555 28
24445 30556 30557 28
24446 30556 30558 28
24447 30556 30559 28
24448 30556 30560 28
24449 30561 30562 28
24450 30561 30563 28
24451 30561 30564 28
24452 30561 30565 28
24453 30566 30567 28
24454 30566 30568 28
24455 30566 30569 28
24456 30566 30570 28
24457 30571 30572 28
24458 30571 30573 28
24459 30571 30574 28
24460 30571 30575 28
24461 30576 30577 28
24462 30576 30578 28
24463 30576 30579 28
24464 30576 30580 28
24465 30581 30582 28
24466 30581 30583 28
24467 30581 30584 28
24468 30581 30585 28
24469 30586 30587 28
24470 30586 30588 28
24471 30586 30589 28
24472 30586 30590 28
24473 30591 30592 28
24474 30591 30593 28
24475 30591 30594 28
24476 30591 30595 28
24477 30596 30597 28
24478 30596 30598 28
24479 30596 30599 28
24480 30596 30600 28
24481 30601 30602 28
24482 30601 30603 28
24483 30601 30604 28
24484 30601 30605 28
24485 30606 30607 28
24486 30606 30608 28
24487 30606 30609 28
24488 30606 30610 28
24489 30611 30612 28
24490 30611 30613 28
24491 30611 30614 28
24492 30611 30615 28
24493 30616 30617 28
24494 30616 30618 28
24495 30616 30619 28
24496 30616 30620 28
24497 30621 30622 28
24498 30621 30623 28
24499 30621 30624 28
24500 30621 30625 28
24501 30626 30627 28
24502 30626 30628 28
24503 30626 30629 28
24504 30626 30630 28
24505 30631 30632 28
24506 30631 30633 28
24507 30631 30634 28
24508 30631 30635 28
24509 30636 30637 28
24510 30636 30638 28
24511 30636 30639 28
24512 30636 30640 28
24513 30641 30642 28
24514 30641 30643 28
24515 30641 30644 28
24516 30641 30645 28
24517 30646 30647 28
24518 30646 30648 28
24519 30646 30649 28
24520 30646 30650 28
24521 30651 30652 28
24522 30651 30653 28
24523 30651 30654 28
24524 30651 30655 28
24525 30656 30657 28
24526 30656 30658 28
24527 30656 30659 28
24528 30656 30660 28
24529 30661 30662 28
24530 30661 30663 28
24531 30661 30664 28
24532 30661 30665 28
24533 30666 30667 28
24534 30666 30668 28
24535 30666 30669 28
24536 30666 30670 28
24537 30671 30672 28
24538 30671 30673 28
24539 30671 30674 28
24540 30671 30675 28
24541 30676 30677 28
24542 30676 30678 28
24543 30676 30679 28
24544 30676 30680 28
24545 30681 30682 28
24546 30681 30683 28
24547 30681 30684 28
24548 30681 30685 28
24549 30686 30687 28
24550 30686 30688 28
24551 30686 30689 28
24552 30686 30690 28
24553 30691 30692 28
24554 30691 30693 28
24555 30691 30694 28
24556 30691 30695 28
24557 30696 30697 28
24558 30696 30698 28
24559 30696 30699 28
24560 30696 30700 28
24561 30701 30702 28
24562 30701 30703 28
24563 30701 30704 28
24564 30701 30705 28
24565 30706 30707 28
24566 30706 30708 28
24567 30706 30709 28
24568 30706 30710 28
24569 30711 30712 28
24570 30711 30713 28
24571 30711 30714 28
24572 30711 30715 28
24573 30716 30717 28
24574 30716 30718 28
24575 30716 30719 28
24576 30716 30720 28
24577 30721 30722 28
24578 30721 30723 28
24579 30721 30724 28
24580 30721 30725 28
24581 30726 30727 28
24582 30726 30728 28
24583 30726 30729 28
24584 30726 30730 28
24585 30731 30732 28
24586 30731 30733 28
24587 30731 30734 28
24588 30731 30735 28
24589 30736 30737 28
24590 30736 30738 28
24591 30736 30739 28
24592 30736 30740 28
24593 30741 30742 28
24594 30741 30743 28
24595 30741 30744 28
24596 30741 30745 28
24597 30746 30747 28
24598 30746 30748 28
24599 30746 30749 28
24600 30746 30750 28
24601 30751 30752 28
24602 30751 30753 28
24603 30751 30754 28
24604 30751 30755 28
24605 30756 30757 28
24606 30756 30758 28
24607 30756 30759 28
24608 30756 30760 28
24609 30761 30762 28
24610 30761 30763 28
24611 30761 30764 28
24612 30761 30765 28
24613 30766 30767 28
24614 30766 30768 28
24615 30766 30769 28
24616 30766 30770 28
24617 30771 30772 28
24618 30771 30773 28
24619 30771 30774 28
24620 30771 30775 28
24621 30776 30777 28
24622 30776 30778 28
24623 30776 30779 28
24624 30776 30780 28
24625 30781 30782 28
24626 30781 30783 28
24627 30781 30784 28
24628 30781 30785 28
24629 30786 30787 28
24630 30786 30788 28
24631 30786 30789 28
24632 30786 30790 28
24633 30791 30792 28
24634 30791 30793 28
24635 30791 30794 28
24636 30791 30795 28
24637 30796 30797 28
24638 30796 30798 28
24639 30796 30799 28
24640 30796 30800 28
24641 30801 30802 28
24642 30801 30803 28
24643 30801 30804 28
24644 30801 30805 28
24645 30806 30807 28
24646 30806 30808 28
24647 30806 30809 28
24648 30806 30810 28
24649 30811 30812 28
24650 30811 30813 28
24651 30811 30814 28
24652 30811 30815 28
24653 30816 30817 28
24654 30816 30818 28
24655 30816 30819 28
24656 30816 30820 28
24657 30821 30822 28
24658 30821 30823 28
24659 30821 30824 28
24660 30821 30825 28
24661 30826 30827 28
24662 30826 30828 28
24663 30826 30829 28
24664 30826 30830 28
24665 30831 30832 28
24666 30831 30833 28
24667 30831 30834 28
24668 30831 30835 28
24669 30836 30837 28
24670 30836 30838 28
24671 30836 30839 28
24672 30836 30840 28
24673 30841 30842 28
24674 30841 30843 28
24675 30841 30844 28
24676 30841 30845 28
24677 30846 30847 28
24678 30846 30848 28
24679 30846 30849 28
24680 30846 30850 28
24681 30851 30852 28
24682 30851 30853 28
24683 30851 30854 28
24684 30851 30855 28
24685 30856 30857 28
24686 30856 30858 28
24687 30856 30859 28
24688 30856 30860 28
24689 30861 30862 28
24690 30861 30863 28
24691 30861 30864 28
24692 30861 30865 28
24693 30866 30867 28
24694 30866 30868 28
24695 30866 30869 28
24696 30866 30870 28
24697 30871 30872 28
24698 30871 30873 28
24699 30871 30874 28
24700 30871 30875 28
24701 30876 30877 28
24702 30876 30878 28
24703 30876 30879 28
24704 30876 30880 28
24705 30881 30882 28
24706 30881 30883 28
24707 30881 30884 28
24708 30881 30885 28
24709 30886 30887 28
24710 30886 30888 28
24711 30886 30889 28
24712 30886 30890 28
24713 30891 30892 28
24714 30891 30893 28
24715 30891 30894 28
24716 30891 30895 28
24717 30896 30897 28
24718 30896 30898 28
24719 30896 30899 28
24720 30896 30900 28
24721 30901 30902 28
24722 30901 30903 28
24723 30901 30904 28
24724 30901 30905 28
24725 30906 30907 28
24726 30906 30908 28
24727 30906 30909 28
24728 30906 30910 28
24729 30911 30912 28
24730 30911 30913 28
24731 30911 30914 28
24732 30911 30915 28
24733 30916 30917 28
24734 30916 30918 28
24735 30916 30919 28
24736 30916 30920 28
24737 30921 30922 28
24738 30921 30923 28
24739 30921 30924 28
24740 30921 30925 28
24741 30926 30927 28
24742 30926 30928 28
24743 30926 30929 28
24744 30926 30930 28
24745 30931 30932 28
24746 30931 30933 28
24747 30931 30934 28
24748 30931 30935 28
24749 30936 30937 28
24750 30936 30938 28
24751 30936 30939 28
24752 30936 30940 28
24753 30941 30942 28
24754 30941 30943 28
24755 30941 30944 28
24756 30941 30945 28
24757 30946 30947 28
24758 30946 30948 28
24759 30946 30949 28
24760 30946 30950 28
24761 30951 30952 28
24762 30951 30953 28
24763 30951 30954 28
24764 30951 30955 28
24765 30956 30957 28
24766 30956 30958 28
24767 30956 30959 28
24768 30956 30960 28
24769 30961 30962 28
24770 30961 30963 28
24771 30961 30964 28
24772 30961 30965 28
24773 30966 30967 28
24774 30966 30968 28
24775 30966 30969 28
24776 30966 30970 28
24777 30971 30972 28
24778 30971 30973 28
24779 30971 30974 28
24780 30971 30975 28
24781 30976 30977 28
24782 30976 30978 28
24783 30976 30979 28
24784 30976 30980 28
24785 30981 30982 28
24786 30981 30983 28
24787 30981 30984 28
24788 30981 30985 28
24789 30986 30987 28
24790 30986 30988 28
24791 30986 30989 28
24792 30986 30990 28
24793 30991 30992 28
24794 30991 30993 28
24795 30991 30994 28
24796 30991 30995 28
24797 30996 30997 28
24798 30996 30998 28
24799 30996 30999 28
24800 30996 31000 28
24801 31001 31002 28
24802 31001 31003 28
24803 31001 31004 28
24804 31001 31005 28
24805 31006 31007 28
24806 31006 31008 28
24807 31006 31009 28
24808 31006 31010 28
24809 31011 31012 28
24810 31011 31013 28
24811 31011 31014 28
24812 31011 31015 28
24813 31016 31017 28
24814 31016 31018 28
24815 31016 31019 28
24816 31016 31020 28
24817 31021 31022 28
24818 31021 31023 28
24819 31021 31024 28
24820 31021 31025 28
24821 31026 31027 28
24822 31026 31028 28
24823 31026 31029 28
24824 31026 31030 28
24825 31031 31032 28
24826 31031 31033 28
24827 31031 31034 28
24828 31031 31035 28
24829 31036 31037 28
24830 31036 31038 28
24831 31036 31039 28
24832 31036 31040 28
24833 31041 31042 28
24834 31041 31043 28
24835 31041 31044 28
24836 31041 31045 28
24837 31046 31047 28
24838 31046 31048 28
24839 31046 31049 28
24840 31046 31050 28
24841 31051 31052 28
24842 31051 31053 28
24843 31051 31054 28
24844 31051 31055 28
24845 31056 31057 28
24846 31056 31058 28
24847 31056 31059 28
24848 31056 31060 28
24849 31061 31062 28
24850 31061 31063 28
24851 31061 31064 28
24852 31061 31065 28
24853 31066 31067 28
24854 31066 31068 28
24855 31066 31069 28
24856 31066 31070 28
24857 31071 31072 28
24858 31071 31073 28
24859 31071 31074 28
24860 31071 31075 28
24861 31076 31077 28
24862 31076 31078 28
24863 31076 31079 28
24864 31076 31080 28
24865 31081 31082 28
24866 31081 31083 28
24867 31081 31084 28
24868 31081 31085 28
24869 31086 31087 28
24870 31086 31088 28
24871 31086 31089 28
24872 31086 31090 28
24873 31091 31092 28
24874 31091 31093 28
24875 31091 31094 28
24876 31091 31095 28
24877 31096 31097 28
24878 31096 31098 28
24879 31096 31099 28
24880 31096 31100 28
24881 31101 31102 28
24882 31101 31103 28
24883 31101 31104 28
24884 31101 31105 28
24885 31106 31107 28
24886 31106 31108 28
24887 31106 31109 28
24888 31106 31110 28
24889 31111 31112 28
24890 31111 31113 28
24891 31111 31114 28
24892 31111 31115 28
24893 31116 31117 28
24894 31116 31118 28
24895 31116 31119 28
24896 31116 31120 28
24897 31121 31122 28
24898 31121 31123 28
24899 31121 31124 28
24900 31121 31125 28
24901 31126 31127 28
24902 31126 31128 28
24903 31126 31129 28
24904 31126 31130 28
24905 31131 31132 28
24906 31131 31133 28
24907 31131 31134 28
24908 31131 31135 28
24909 31136 31137 28
24910 31136 31138 28
24911 31136 31139 28
24912 31136 31140 28
24913 31141 31142 28
24914 31141 31143 28
24915 31141 31144 28
24916 31141 31145 28
24917 31146 31147 28
24918 31146 31148 28
24919 31146 31149 28
24920 31146 31150 28
24921 31151 31152 28
24922 31151 31153 28
24923 31151 31154 28
24924 31151 31155 28
24925 31156 31157 28
24926 31156 31158 28
24927 31156 31159 28
24928 31156 31160 28
24929 31161 31162 28
24930 31161 31163 28
24931 31161 31164 28
24932 31161 31165 28
24933 31166 31167 28
24934 31166 31168 28
24935 31166 31169 28
24936 31166 31170 28
24937 31171 31172 28
24938 31171 31173 28
24939 31171 31174 28
24940 31171 31175 28
24941 31176 31177 28
24942 31176 31178 28
24943 31176 31179 28
24944 31176 31180 28
24945 31181 31182 28
24946 31181 31183 28
24947 31181 31184 28
24948 31181 31185 28
24949 31186 31187 28
24950 31186 31188 28
24951 31186 31189 28
24952 31186 31190 28
24953 31191 31192 28
24954 31191 31193 28
24955 31191 31194 28
24956 31191 31195 28
24957 31196 31197 28
24958 31196 31198 28
24959 31196 31199 28
24960 31196 31200 28
24961 31201 31202 28
24962 31201 31203 28
24963 31201 31204 28
24964 31201 31205 28
24965 31206 31207 28
24966 31206 31208 28
24967 31206 31209 28
24968 31206 31210 28
24969 31211 31212 28
24970 31211 31213 28
24971 31211 31214 28
24972 31211 31215 28
24973 31216 31217 28
24974 31216 31218 28
24975 31216 31219 28
24976 31216 31220 28
24977 31221 31222 28
24978 31221 31223 28
24979 31221 31224 28
24980 31221 31225 28
24981 31226 31227 28
24982 31226 31228 28
24983 31226 31229 28
24984 31226 31230 28
24985 31231 31232 28
24986 31231 31233 28
24987 31231 31234 28
24988 31231 31235 28
24989 31236 31237 28
24990 31236 31238 28
24991 31236 31239 28
24992 31236 31240 28
24993 31241 31242 28
24994 31241 31243 28
24995 31241 31244 28
24996 31241 31245 28
24997 31246 31247 28
24998 31246 31248 28
24999 31246 31249 28
25000 31246 31250 28
25001 31251 31252 28
25002 31251 31253 28
25003 31251 31254 28
25004 31251 31255 28
25005 31256 31257 28
25006 31256 31258 28
25007 31256 31259 28
25008 31256 31260 28
25009 31261 31262 28
25010 31261 31263 28
25011 31261 31264 28
25012 31261 31265 28
25013 31266 31267 28
25014 31266 31268 28
25015 31266 31269 28
25016 31266 31270 28
25017 31271 31272 28
25018 31271 31273 28
25019 31271 31274 28
25020 31271 31275 28
25021 31276 31277 28
25022 31276 31278 28
25023 31276 31279 28
25024 31276 31280 28
25025 31281 31282 28
25026 31281 31283 28
25027 31281 31284 28
25028 31281 31285 28
25029 31286 31287 28
25030 31286 31288 28
25031 31286 31289 28
25032 31286 31290 28
25033 31291 31292 28
25034 31291 31293 28
25035 31291 31294 28
25036 31291 31295 28
25037 31296 31297 28
25038 31296 31298 28
25039 31296 31299 28
25040 31296 31300 28
25041 31301 31302 28
25042 31301 31303 28
25043 31301 31304 28
25044 31301 31305 28
25045 31306 31307 28
25046 31306 31308 28
25047 31306 31309 28
25048 31306 31310 28
25049 31311 31312 28
25050 31311 31313 28
25051 31311 31314 28
25052 31311 31315 28
25053 31316 31317 28
25054 31316 31318 28
25055 31316 31319 28
25056 31316 31320 28
25057 31321 31322 28
25058 31321 31323 28
25059 31321 31324 28
25060 31321 31325 28
25061 31326 31327 28
25062 31326 31328 28
25063 31326 31329 28
25064 31326 31330 28
25065 31331 31332 28
25066 31331 31333 28
25067 31331 31334 28
25068 31331 31335 28
25069 31336 31337 28
25070 31336 31338 28
25071 31336 31339 28
25072 31336 31340 28
25073 31341 31342 28
25074 31341 31343 28
25075 31341 31344 28
25076 31341 31345 28
25077 31346 31347 28
25078 31346 31348 28
25079 31346 31349 28
25080 31346 31350 28
25081 31351 31352 28
25082 31351 31353 28
25083 31351 31354 28
25084 31351 31355 28
25085 31356 31357 28
25086 31356 31358 28
25087 31356 31359 28
25088 31356 31360 28
25089 31361 31362 28
25090 31361 31363 28
25091 31361 31364 28
25092 31361 31365 28
25093 31366 31367 28
25094 31366 31368 28
25095 31366 31369 28
25096 31366 31370 28
25097 31371 31372 28
25098 31371 31373 28
25099 31371 31374 28
25100 31371 31375 28
25101 31376 31377 28
25102 31376 31378 28
25103 31376 31379 28
25104 31376 31380 28
25105 31381 31382 28
25106 31381 31383 28
25107 31381 31384 28
25108 31381 31385 28
25109 31386 31387 28
25110 31386 31388 28
25111 31386 31389 28
25112 31386 31390 28
25113 31391 31392 28
25114 31391 31393 28
25115 31391 31394 28
25116 31391 31395 28
25117 31396 31397 28
25118 31396 31398 28
25119 31396 31399 28
25120 31396 31400 28
25121 31401 31402 28
25122 31401 31403 28
25123 31401 31404 28
25124 31401 31405 28
25125 31406 31407 28
25126 31406 31408 28
25127 31406 31409 28
25128 31406 31410 28
25129 31411 31412 28
25130 31411 31413 28
25131 31411 31414 28
25132 31411 31415 28
25133 31416 31417 28
25134 31416 31418 28
25135 31416 31419 28
25136 31416 31420 28
25137 31421 31422 28
25138 31421 31423 28
25139 31421 31424 28
25140 31421 31425 28
25141 31426 31427 28
25142 31426 31428 28
25143 31426 31429 28
25144 31426 31430 28
25145 31431 31432 28
25146 31431 31433 28
25147 31431 31434 28
25148 31431 31435 28
25149 31436 31437 28
25150 31436 31438 28
25151 31436 31439 28
25152 31436 31440 28
25153 31441 31442 28
25154 31441 31443 28
25155 31441 31444 28
25156 31441 31445 28
25157 31446 31447 28
25158 31446 31448 28
25159 31446 31449 28
25160 31446 31450 28
25161 31451 31452 28
25162 31451 31453 28
25163 31451 31454 28
25164 31451 31455 28
25165 31456 31457 28
25166 31456 31458 28
25167 31456 31459 28
25168 31456 31460 28
25169 31461 31462 28
25170 31461 31463 28
25171 31461 31464 28
25172 31461 31465 28
25173 31466 31467 28
25174 31466 31468 28
25175 31466 31469 28
25176 31466 31470 28
25177 31471 31472 28
25178 31471 31473 28
25179 31471 31474 28
25180 31471 31475 28
25181 31476 31477 28
25182 31476 31478 28
25183 31476 31479 28
25184 31476 31480 28
25185 31481 31482 28
25186 31481 31483 28
25187 31481 31484 28
25188 31481 31485 28
25189 31486 31487 28
25190 31486 31488 28
25191 31486 31489 28
25192 31486 31490 28
25193 31491 31492 28
25194 31491 31493 28
25195 31491 31494 28
25196 31491 31495 28
25197 31496 31497 28
25198 31496 31498 28
25199 31496 31499 28
25200 31496 31500 28
25201 31501 31502 28
25202 31501 31503 28
25203 31501 31504 28
25204 31501 31505 28
25205 31506 31507 28
25206 31506 31508 28
25207 31506 31509 28
25208 31506 31510 28
25209 31511 31512 28
25210 31511 31513 28
25211 31511 31514 28
25212 31511 31515 28
25213 31516 31517 28
25214 31516 31518 28
25215 31516 31519 28
25216 31516 31520 28
25217 31521 31522 28
25218 31521 31523 28
25219 31521 31524 28
25220 31521 31525 28
25221 31526 31527 28
25222 31526 31528 28
25223 31526 31529 28
25224 31526 31530 28
25225 31531 31532 28
25226 31531 31533 28
25227 31531 31534 28
25228 31531 31535 28
25229 31536 31537 28
25230 31536 31538 28
25231 31536 31539 28
25232 31536 31540 28
25233 31541 31542 28
25234 31541 31543 28
25235 31541 31544 28
25236 31541 31545 28
25237 31546 31547 28
25238 31546 31548 28
25239 31546 31549 28
25240 31546 31550 28
25241 31551 31552 28
25242 31551 31553 28
25243 31551 31554 28
25244 31551 31555 28
25245 31556 31557 28
25246 31556 31558 28
25247 31556 31559 28
25248 31556 31560 28
25249 31561 31562 28
25250 31561 31563 28
25251 31561 31564 28
25252 31561 31565 28
25253 31566 31567 28
25254 31566 31568 28
25255 31566 31569 28
25256 31566 31570 28
25257 31571 31572 28
25258 31571 31573 28
25259 31571 31574 28
25260 31571 31575 28
25261 31576 31577 28
25262 31576 31578 28
25263 31576 31579 28
25264 31576 31580 28
25265 31581 31582 28
25266 31581 31583 28
25267 31581 31584 28
25268 31581 31585 28
25269 31586 31587 28
25270 31586 31588 28
25271 31586 31589 28
25272 31586 31590 28
25273 31591 31592 28
25274 31591 31593 28
25275 31591 31594 28
25276 31591 31595 28
25277 31596 31597 28
25278 31596 31598 28
25279 31596 31599 28
25280 31596 31600 28
25281 31601 31602 28
25282 31601 31603 28
25283 31601 31604 28
25284 31601 31605 28
25285 31606 31607 28
25286 31606 31608 28
25287 31606 31609 28
25288 31606 31610 28
25289 31611 31612 28
25290 31611 31613 28
25291 31611 31614 28
25292 31611 31615 28
25293 31616 31617 28
25294 31616 31618 28
25295 31616 31619 28
25296 31616 31620 28
25297 31621 31622 28
25298 31621 31623 28
25299 31621 31624 28
25300 31621 31625 28
25301 31626 31627 28
25302 31626 31628 28
25303 31626 31629 28
25304 31626 31630 28
25305 31631 31632 28
25306 31631 31633 28
25307 31631 31634 28
25308 31631 31635 28
25309 31636 31637 28
25310 31636 31638 28
25311 31636 31639 28
25312 31636 31640 28
25313 31641 31642 28
25314 31641 31643 28
25315 31641 31644 28
25316 31641 31645 28
25317 31646 31647 28
25318 31646 31648 28
25319 31646 31649 28
25320 31646 31650 28
25321 31651 31652 28
25322 31651 31653 28
25323 31651 31654 28
25324 31651 31655 28
25325 31656 31657 28
25326 31656 31658 28
25327 31656 31659 28
25328 31656 31660 28
25329 31661 31662 28
25330 31661 31663 28
25331 31661 31664 28
25332 31661 31665 28
25333 31666 31667 28
25334 31666 31668 28
25335 31666 31669 28
25336 31666 31670 28
25337 31671 31672 28
25338 31671 31673 28
25339 31671 31674 28
25340 31671 31675 28
25341 31676 31677 28
25342 31676 31678 28
25343 31676 31679 28
25344 31676 31680 28
25345 31681 31682 28
25346 31681 31683 28
25347 31681 31684 28
25348 31681 31685 28
25349 31686 31687 28
25350 31686 31688 28
25351 31686 31689 28
25352 31686 31690 28
25353 31691 31692 28
25354 31691 31693 28
25355 31691 31694 28
25356 31691 31695 28
25357 31696 31697 28
25358 31696 31698 28
25359 31696 31699 28
25360 31696 31700 28
25361 31701 31702 28
25362 31701 31703 28
25363 31701 31704 28
25364 31701 31705 28
25365 31706 31707 28
25366 31706 31708 28
25367 31706 31709 28
25368 31706 31710 28
25369 31711 31712 28
25370 31711 31713 28
25371 31711 31714 28
25372 31711 31715 28
25373 31716 31717 28
25374 31716 31718 28
25375 31716 31719 28
25376 31716 31720 28
25377 31721 31722 28
25378 31721 31723 28
25379 31721 31724 28
25380 31721 31725 28
25381 31726 31727 28
25382 31726 31728 28
25383 31726 31729 28
25384 31726 31730 28
25385 31731 31732 28
25386 31731 31733 28
25387 31731 31734 28
25388 31731 31735 28
25389 31736 31737 28
25390 31736 31738 28
25391 31736 31739 28
25392 31736 31740 28
25393 31741 31742 28
25394 31741 31743 28
25395 31741 31744 28
25396 31741 31745 28
25397 31746 31747 28
25398 31746 31748 28
25399 31746 31749 28
25400 31746 31750 28
25401 31751 31752 28
25402 31751 31753 28
25403 31751 31754 28
25404 31751 31755 28
25405 31756 31757 28
25406 31756 31758 28
25407 31756 31759 28
25408 31756 31760 28
25409 31761 31762 28
25410 31761 31763 28
25411 31761 31764 28
25412 31761 31765 28
25413 31766 31767 28
25414 31766 31768 28
25415 31766 31769 28
25416 31766 31770 28
25417 31771 31772 28
25418 31771 31773 28
25419 31771 31774 28
25420 31771 31775 28
25421 31776 31777 28
25422 31776 31778 28
25423 31776 31779 28
25424 31776 31780 28
25425 31781 31782 28
25426 31781 31783 28
25427 31781 31784 28
25428 31781 31785 28
25429 31786 31787 28
25430 31786 31788 28
25431 31786 31789 28
25432 31786 31790 28
25433 31791 31792 28
25434 31791 31793 28
25435 31791 31794 28
25436 31791 31795 28
25437 31796 31797 28
25438 31796 31798 28
25439 31796 31799 28
25440 31796 31800 28
25441 31801 31802 28
25442 31801 31803 28
25443 31801 31804 28
25444 31801 31805 28
25445 31806 31807 28
25446 31806 31808 28
25447 31806 31809 28
25448 31806 31810 28
25449 31811 31812 28
25450 31811 31813 28
25451 31811 31814 28
25452 31811 31815 28
25453 31816 31817 28
25454 31816 31818 28
25455 31816 31819 28
25456 31816 31820 28
25457 31821 31822 28
25458 31821 31823 28
25459 31821 31824 28
25460 31821 31825 28
25461 31826 31827 28
25462 31826 31828 28
25463 31826 31829 28
25464 31826 31830 28
25465 31831 31832 28
25466 31831 31833 28
25467 31831 31834 28
25468 31831 31835 28
25469 31836 31837 28
25470 31836 31838 28
25471 31836 31839 28
25472 31836 31840 28
25473 31841 31842 28
25474 31841 31843 28
25475 31841 31844 28
25476 31841 31845 28
25477 31846 31847 28
25478 31846 31848 28
25479 31846 31849 28
25480 31846 31850 28
25481 31851 31852 28
25482 31851 31853 28
25483 31851 31854 28
25484 31851 31855 28
25485 31856 31857 28
25486 31856 31858 28
25487 31856 31859 28
25488 31856 31860 28
25489 31861 31862 28
25490 31861 31863 28
25491 31861 31864 28
25492 31861 31865 28
25493 31866 31867 28
25494 31866 31868 28
25495 31866 31869 28
25496 31866 31870 28
25497 31871 31872 28
25498 31871 31873 28
25499 31871 31874 28
25500 31871 31875 28
25501 31876 31877 28
25502 31876 31878 28
25503 31876 31879 28
25504 31876 31880 28
25505 31881 31882 28
25506 31881 31883 28
25507 31881 31884 28
25508 31881 31885 28
25509 31886 31887 28
25510 31886 31888 28
25511 31886 31889 28
25512 31886 31890 28
25513 31891 31892 28
25514 31891 31893 28
25515 31891 31894 28
25516 31891 31895 28
25517 31896 31897 28
25518 31896 31898 28
25519 31896 31899 28
25520 31896 31900 28
25521 31901 31902 28
25522 31901 31903 28
25523 31901 31904 28
25524 31901 31905 28
25525 31906 31907 28
25526 31906 31908 28
25527 31906 31909 28
25528 31906 31910 28
25529 31911 31912 28
25530 31911 31913 28
25531 31911 31914 28
25532 31911 31915 28
25533 31916 31917 28
25534 31916 31918 28
25535 31916 31919 28
25536 31916 31920 28
25537 31921 31922 28
25538 31921 31923 28
25539 31921 31924 28
25540 31921 31925 28
25541 31926 31927 28
25542 31926 31928 28
25543 31926 31929 28
25544 31926 31930 28
25545 31931 31932 28
25546 31931 31933 28
25547 31931 31934 28
25548 31931 31935 28
25549 31936 31937 28
25550 31936 31938 28
25551 31936 31939 28
25552 31936 31940 28
25553 31941 31942 28
25554 31941 31943 28
25555 31941 31944 28
25556 31941 31945 28
25557 31946 31947 28
25558 31946 31948 28
25559 31946 31949 28
25560 31946 31950 28
25561 31951 31952 28
25562 31951 31953 28
25563 31951 31954 28
25564 31951 31955 28
25565 31956 31957 28
25566 31956 31958 28
25567 31956 31959 28
25568 31956 31960 28
25569 31961 31962 28
25570 31961 31963 28
25571 31961 31964 28
25572 31961 31965 28
25573 31966 31967 28
25574 31966 31968 28
25575 31966 31969 28
25576 31966 31970 28
25577 31971 31972 28
25578 31971 31973 28
25579 31971 31974 28
25580 31971 31975 28
25581 31976 31977 28
25582 31976 31978 28
25583 31976 31979 28
25584 31976 31980 28
25585 31981 31982 28
25586 31981 31983 28
25587 31981 31984 28
25588 31981 31985 28
25589 31986 31987 28
25590 31986 31988 28
25591 31986 31989 28
25592 31986 31990 28
25593 31991 31992 28
25594 31991 31993 28
25595 31991 31994 28
25596 31991 31995 28
25597 31996 31997 28
25598 31996 31998 28
25599 31996 31999 28
25600 31996 32000 28
25601 32001 32002 28
25602 32001 32003 28
25603 32001 32004 28
25604 32001 32005 28
25605 32006 32007 28
25606 32006 32008 28
25607 32006 32009 28
25608 32006 32010 28
25609 32011 32012 28
25610 32011 32013 28
25611 32011 32014 28
25612 32011 32015 28
25613 32016 32017 28
25614 32016 32018 28
25615 32016 32019 28
25616 32016 32020 28
25617 32021 32022 28
25618 32021 32023 28
25619 32021 32024 28
25620 32021 32025 28
25621 32026 32027 28
25622 32026 32028 28
25623 32026 32029 28
25624 32026 32030 28
25625 32031 32032 28
25626 32031 32033 28
25627 32031 32034 28
25628 32031 32035 28
25629 32036 32037 28
25630 32036 32038 28
25631 32036 32039 28
25632 32036 32040 28
25633 32041 32042 28
25634 32041 32043 28
25635 32041 32044 28
25636 32041 32045 28
25637 32046 32047 28
25638 32046 32048 28
25639 32046 32049 28
25640 32046 32050 28
25641 32051 32052 28
25642 32051 32053 28
25643 32051 32054 28
25644 32051 32055 28
25645 32056 32057 28
25646 32056 32058 28
25647 32056 32059 28
25648 32056 32060 28
25649 32061 32062 28
25650 32061 32063 28
25651 32061 32064 28
25652 32061 32065 28
25653 32066 32067 28
25654 32066 32068 28
25655 32066 32069 28
25656 32066 32070 28
25657 32071 32072 28
25658 32071 32073 28
25659 32071 32074 28
25660 32071 32075 28
25661 32076 32077 28
25662 32076 32078 28
25663 32076 32079 28
25664 32076 32080 28
25665 32081 32082 28
25666 32081 32083 28
25667 32081 32084 28
25668 32081 32085 28
25669 32086 32087 28
25670 32086 32088 28
25671 32086 32089 28
25672 32086 32090 28
25673 32091 32092 28
25674 32091 32093 28
25675 32091 32094 28
25676 32091 32095 28
25677 32096 32097 28
25678 32096 32098 28
25679 32096 32099 28
25680 32096 32100 28
25681 32101 32102 28
25682 32101 32103 28
25683 32101 32104 28
25684 32101 32105 28
25685 32106 32107 28
25686 32106 32108 28
25687 32106 32109 28
25688 32106 32110 28
25689 32111 32112 28
25690 32111 32113 28
25691 32111 32114 28
25692 32111 32115 28
25693 32116 32117 28
25694 32116 32118 28
25695 32116 32119 28
25696 32116 32120 28
25697 32121 32122 28
25698 32121 32123 28
25699 32121 32124 28
25700 32121 32125 28
25701 32126 32127 28
25702 32126 32128 28
25703 32126 32129 28
25704 32126 32130 28
25705 32131 32132 28
25706 32131 32133 28
25707 32131 32134 28
25708 32131 32135 28
25709 32136 32137 28
25710 32136 32138 28
25711 32136 32139 28
25712 32136 32140 28
25713 32141 32142 28
25714 32141 32143 28
25715 32141 32144 28
25716 32141 32145 28
25717 32146 32147 28
25718 32146 32148 28
25719 32146 32149 28
25720 32146 32150 28
25721 32151 32152 28
25722 32151 32153 28
25723 32151 32154 28
25724 32151 32155 28
25725 32156 32157 28
25726 32156 32158 28
25727 32156 32159 28
25728 32156 32160 28
25729 32161 32162 28
25730 32161 32163 28
25731 32161 32164 28
25732 32161 32165 28
25733 32166 32167 28
25734 32166 32168 28
25735 32166 32169 28
25736 32166 32170 28
25737 32171 32172 28
25738 32171 32173 28
25739 32171 32174 28
25740 32171 32175 28
25741 32176 32177 28
25742 32176 32178 28
25743 32176 32179 28
25744 32176 32180 28
25745 32181 32182 28
25746 32181 32183 28
25747 32181 32184 28
25748 32181 32185 28
25749 32186 32187 28
25750 32186 32188 28
25751 32186 32189 28
25752 32186 32190 28
25753 32191 32192 28
25754 32191 32193 28
25755 32191 32194 28
25756 32191 32195 28
25757 32196 32197 28
25758 32196 32198 28
25759 32196 32199 28
25760 32196 32200 28
25761 32201 32202 28
25762 32201 32203 28
25763 32201 32204 28
25764 32201 32205 28
25765 32206 32207 28
25766 32206 32208 28
25767 32206 32209 28
25768 32206 32210 28
25769 32211 32212 28
25770 32211 32213 28
25771 32211 32214 28
25772 32211 32215 28
25773 32216 32217 28
25774 32216 32218 28
25775 32216 32219 28
25776 32216 32220 28
25777 32221 32222 28
25778 32221 32223 28
25779 32221 32224 28
25780 32221 32225 28
25781 32226 32227 28
25782 32226 32228 28
25783 32226 32229 28
25784 32226 32230 28
25785 32231 32232 28
25786 32231 32233 28
25787 32231 32234 28
25788 32231 32235 28
25789 32236 32237 28
25790 32236 32238 28
25791 32236 32239 28
25792 32236 32240 28
25793 32241 32242 28
25794 32241 32243 28
25795 32241 32244 28
25796 32241 32245 28
25797 32246 32247 28
25798 32246 32248 28
25799 32246 32249 28
25800 32246 32250 28
25801 32251 32252 28
25802 32251 32253 28
25803 32251 32254 28
25804 32251 32255 28
25805 32256 32257 28
25806 32256 32258 28
25807 32256 32259 28
25808 32256 32260 28
25809 32261 32262 28
25810 32261 32263 28
25811 32261 32264 28
25812 32261 32265 28
25813 32266 32267 28
25814 32266 32268 28
25815 32266 32269 28
25816 32266 32270 28
25817 32271 32272 28
25818 32271 32273 28
25819 32271 32274 28
25820 32271 32275 28
25821 32276 32277 28
25822 32276 32278 28
25823 32276 32279 28
25824 32276 32280 28
25825 32281 32282 28
25826 32281 32283 28
25827 32281 32284 28
25828 32281 32285 28
25829 32286 32287 28
25830 32286 32288 28
25831 32286 32289 28
25832 32286 32290 28
25833 32291 32292 28
25834 32291 32293 28
25835 32291 32294 28
25836 32291 32295 28
25837 32296 32297 28
25838 32296 32298 28
25839 32296 32299 28
25840 32296 32300 28
25841 32301 32302 28
25842 32301 32303 28
25843 32301 32304 28
25844 32301 32305 28
25845 32306 32307 28
25846 32306 32308 28
25847 32306 32309 28
25848 32306 32310 28
25849 32311 32312 28
25850 32311 32313 28
25851 32311 32314 28
25852 32311 32315 28
25853 32316 32317 28
25854 32316 32318 28
25855 32316 32319 28
25856 32316 32320 28
25857 32321 32322 28
25858 32321 32323 28
25859 32321 32324 28
25860 32321 32325 28
25861 32326 32327 28
25862 32326 32328 28
25863 32326 32329 28
25864 32326 32330 28
25865 32331 32332 28
25866 32331 32333 28
25867 32331 32334 28
25868 32331 32335 28
25869 32336 32337 28
25870 32336 32338 28
25871 32336 32339 28
25872 32336 32340 28
25873 32341 32342 28
25874 32341 32343 28
25875 32341 32344 28
25876 32341 32345 28
25877 32346 32347 28
25878 32346 32348 28
25879 32346 32349 28
25880 32346 32350 28
25881 32351 32352 28
25882 32351 32353 28
25883 32351 32354 28
25884 32351 32355 28
25885 32356 32357 28
25886 32356 32358 28
25887 32356 32359 28
25888 32356 32360 28
25889 32361 32362 28
25890 32361 32363 28
25891 32361 32364 28
25892 32361 32365 28
25893 32366 32367 28
25894 32366 32368 28
25895 32366 32369 28
25896 32366 32370 28
25897 32371 32372 28
25898 32371 32373 28
25899 32371 32374 28
25900 32371 32375 28
25901 32376 32377 28
25902 32376 32378 28
25903 32376 32379 28
25904 32376 32380 28
25905 32381 32382 28
25906 32381 32383 28
25907 32381 32384 28
25908 32381 32385 28
25909 32386 32387 28
25910 32386 32388 28
25911 32386 32389 28
25912 32386 32390 28
25913 32391 32392 28
25914 32391 32393 28
25915 32391 32394 28
25916 32391 32395 28
25917 32396 32397 28
25918 32396 32398 28
25919 32396 32399 28
25920 32396 32400 28
25921 32401 32402 28
25922 32401 32403 28
25923 32401 32404 28
25924 32401 32405 28
25925 32406 32407 28
25926 32406 32408 28
25927 32406 32409 28
25928 32406 32410 28
25929 32411 32412 28
25930 32411 32413 28
25931 32411 32414 28
25932 32411 32415 28
25933 32416 32417 28
25934 32416 32418 28
25935 32416 32419 28
25936 32416 32420 28
25937 32421 32422 28
25938 32421 32423 28
25939 32421 32424 28
25940 32421 32425 28
25941 32426 32427 28
25942 32426 32428 28
25943 32426 32429 28
25944 32426 32430 28
25945 32431 32432 28
25946 32431 32433 28
25947 32431 32434 28
25948 32431 32435 28
25949 32436 32437 28
25950 32436 32438 28
25951 32436 32439 28
25952 32436 32440 28
25953 32441 32442 28
25954 32441 32443 28
25955 32441 32444 28
25956 32441 32445 28
25957 32446 32447 28
25958 32446 32448 28
25959 32446 32449 28
25960 32446 32450 28
25961 32451 32452 28
25962 32451 32453 28
25963 32451 32454 28
25964 32451 32455 28
25965 32456 32457 28
25966 32456 32458 28
25967 32456 32459 28
25968 32456 32460 28
25969 32461 32462 28
25970 32461 32463 28
25971 32461 32464 28
25972 32461 32465 28
25973 32466 32467 28
25974 32466 32468 28
25975 32466 32469 28
25976 32466 32470 28
25977 32471 32472 28
25978 32471 32473 28
25979 32471 32474 28
25980 32471 32475 28
25981 32476 32477 28
25982 32476 32478 28
25983 32476 32479 28
25984 32476 32480 28
25985 32481 32482 28
25986 32481 32483 28
25987 32481 32484 28
25988 32481 32485 28
25989 32486 32487 28
25990 32486 32488 28
25991 32486 32489 28
25992 32486 32490 28
25993 32491 32492 28
25994 32491 32493 28
25995 32491 32494 28
25996 32491 32495 28
25997 32496 32497 28
25998 32496 32498 28
25999 32496 32499 28
26000 32496 32500 28
26001 32501 32502 28
26002 32501 32503 28
26003 32501 32504 28
26004 32501 32505 28
26005 32506 32507 28
26006 32506 32508 28
26007 32506 32509 28
26008 32506 32510 28
26009 32511 32512 28
26010 32511 32513 28
26011 32511 32514 28
26012 32511 32515 28
26013 32516 32517 28
26014 32516 32518 28
26015 32516 32519 28
26016 32516 32520 28
26017 32521 32522 28
26018 32521 32523 28
26019 32521 32524 28
26020 32521 32525 28
26021 32526 32527 28
26022 32526 32528 28
26023 32526 32529 28
26024 32526 32530 28
26025 32531 32532 28
26026 32531 32533 28
26027 32531 32534 28
26028 32531 32535 28
26029 32536 32537 28
26030 32536 32538 28
26031 32536 32539 28
26032 32536 32540 28
26033 32541 32542 28
26034 32541 32543 28
26035 32541 32544 28
26036 32541 32545 28
26037 32546 32547 28
26038 32546 32548 28
26039 32546 32549 28
26040 32546 32550 28
26041 32551 32552 28
26042 32551 32553 28
26043 32551 32554 28
26044 32551 32555 28
26045 32556 32557 28
26046 32556 32558 28
26047 32556 32559 28
26048 32556 32560 28
26049 32561 32562 28
26050 32561 32563 28
26051 32561 32564 28
26052 32561 32565 28
26053 32566 32567 28
26054 32566 32568 28
26055 32566 32569 28
26056 32566 32570 28
26057 32571 32572 28
26058 32571 32573 28
26059 32571 32574 28
26060 32571 32575 28
26061 32576 32577 28
26062 32576 32578 28
26063 32576 32579 28
26064 32576 32580 28
26065 32581 32582 28
26066 32581 32583 28
26067 32581 32584 28
26068 32581 32585 28
26069 32586 32587 28
26070 32586 32588 28
26071 32586 32589 28
26072 32586 32590 28
26073 32591 32592 28
26074 32591 32593 28
26075 32591 32594 28
26076 32591 32595 28
26077 32596 32597 28
26078 32596 32598 28
26079 32596 32599 28
26080 32596 32600 28
26081 32601 32602 28
26082 32601 32603 28
26083 32601 32604 28
26084 32601 32605 28
26085 32606 32607 28
26086 32606 32608 28
26087 32606 32609 28
26088 32606 32610 28
26089 32611 32612 28
26090 32611 32613 28
26091 32611 32614 28
26092 32611 32615 28
26093 32616 32617 28
26094 32616 32618 28
26095 32616 32619 28
26096 32616 32620 28
26097 32621 32622 28
26098 32621 32623 28
26099 32621 32624 28
26100 32621 32625 28
26101 32626 32627 28
26102 32626 32628 28
26103 32626 32629 28
26104 32626 32630 28
26105 32631 32632 28
26106 32631 32633 28
26107 32631 32634 28
26108 32631 32635 28
26109 32636 32637 28
26110 32636 32638 28
26111 32636 32639 28
26112 32636 32640 28
26113 32641 32642 28
26114 32641 32643 28
26115 32641 32644 28
26116 32641 32645 28
26117 32646 32647 28
26118 32646 32648 28
26119 32646 32649 28
26120 32646 32650 28
26121 32651 32652 28
26122 32651 32653 28
26123 32651 32654 28
26124 32651 32655 28
26125 32656 32657 28
26126 32656 32658 28
26127 32656 32659 28
26128 32656 32660 28
26129 32661 32662 28
26130 32661 32663 28
26131 32661 32664 28
26132 32661 32665 28
26133 32666 32667 28
26134 32666 32668 28
26135 32666 32669 28
26136 32666 32670 28
26137 32671 32672 28
26138 32671 32673 28
26139 32671 32674 28
26140 32671 32675 28
26141 32676 32677 28
26142 32676 32678 28
26143 32676 32679 28
26144 32676 32680 28
26145 32681 32682 28
26146 32681 32683 28
26147 32681 32684 28
26148 32681 32685 28
26149 32686 32687 28
26150 32686 32688 28
26151 32686 32689 28
26152 32686 32690 28
26153 32691 32692 28
26154 32691 32693 28
26155 32691 32694 28
26156 32691 32695 28
26157 32696 32697 28
26158 32696 32698 28
26159 32696 32699 28
26160 32696 32700 28
26161 32701 32702 28
26162 32701 32703 28
26163 32701 32704 28
26164 32701 32705 28
26165 32706 32707 28
26166 32706 32708 28
26167 32706 32709 28
26168 32706 32710 28
26169 32711 32712 28
26170 32711 32713 28
26171 32711 32714 28
26172 32711 32715 28
26173 32716 32717 28
26174 32716 32718 28
26175 32716 32719 28
26176 32716 32720 28
26177 32721 32722 28
26178 32721 32723 28
26179 32721 32724 28
26180 32721 32725 28
26181 32726 32727 28
26182 32726 32728 28
26183 32726 32729 28
26184 32726 32730 28
26185 32731 32732 28
26186 32731 32733 28
26187 32731 32734 28
26188 32731 32735 28
26189 32736 32737 28
26190 32736 32738 28
26191 32736 32739 28
26192 32736 32740 28
26193 32741 32742 28
26194 32741 32743 28
26195 32741 32744 28
26196 32741 32745 28
26197 32746 32747 28
26198 32746 32748 28
26199 32746 32749 28
26200 32746 32750 28
26201 32751 32752 28
26202 32751 32753 28
26203 32751 32754 28
26204 32751 32755 28
26205 32756 32757 28
26206 32756 32758 28
26207 32756 32759 28
26208 32756 32760 28
26209 32761 32762 28
26210 32761 32763 28
26211 32761 32764 28
26212 32761 32765 28
26213 32766 32767 28
26214 32766 32768 28
26215 32766 32769 28
26216 32766 32770 28
26217 32771 32772 28
26218 32771 32773 28
26219 32771 32774 28
26220 32771 32775 28
26221 32776 32777 28
26222 32776 32778 28
26223 32776 32779 28
26224 32776 32780 28
26225 32781 32782 28
26226 32781 32783 28
26227 32781 32784 28
26228 32781 32785 28
26229 32786 32787 28
26230 32786 32788 28
26231 32786 32789 28
26232 32786 32790 28
26233 32791 32792 28
26234 32791 32793 28
26235 32791 32794 28
26236 32791 32795 28
26237 32796 32797 28
26238 32796 32798 28
26239 32796 32799 28
26240 32796 32800 28
26241 32801 32802 28
26242 32801 32803 28
26243 32801 32804 28
26244 32801 32805 28
26245 32806 32807 28
26246 32806 32808 28
26247 32806 32809 28
26248 32806 32810 28
26249 32811 32812 28
26250 32811 32813 28
26251 32811 32814 28
26252 32811 32815 28
26253 32816 32817 28
26254 32816 32818 28
26255 32816 32819 28
26256 32816 32820 28
26257 32821 32822 28
26258 32821 32823 28
26259 32821 32824 28
26260 32821 32825 28
26261 32826 32827 28
26262 32826 32828 28
26263 32826 32829 28
26264 32826 32830 28
26265 32831 32832 28
26266 32831 32833 28
26267 32831 32834 28
26268 32831 32835 28
26269 32836 32837 28
26270 32836 32838 28
26271 32836 32839 28
26272 32836 32840 28
26273 32841 32842 28
26274 32841 32843 28
26275 32841 32844 28
26276 32841 32845 28
26277 32846 32847 28
26278 32846 32848 28
26279 32846 32849 28
26280 32846 32850 28
26281 32851 32852 28
26282 32851 32853 28
26283 32851 32854 28
26284 32851 32855 28
26285 32856 32857 28
26286 32856 32858 28
26287 32856 32859 28
26288 32856 32860 28
26289 32861 32862 28
26290 32861 32863 28
26291 32861 32864 28
26292 32861 32865 28
26293 32866 32867 28
26294 32866 32868 28
26295 32866 32869 28
26296 32866 32870 28
26297 32871 32872 28
26298 32871 32873 28
26299 32871 32874 28
26300 32871 32875 28
26301 32876 32877 28
26302 32876 32878 28
26303 32876 32879 28
26304 32876 32880 28
26305 32881 32882 28
26306 32881 32883 28
26307 32881 32884 28
26308 32881 32885 28
26309 32886 32887 28
26310 32886 32888 28
26311 32886 32889 28
26312 32886 32890 28
26313 32891 32892 28
26314 32891 32893 28
26315 32891 32894 28
26316 32891 32895 28
26317 32896 32897 28
26318 32896 32898 28
26319 32896 32899 28
26320 32896 32900 28
26321 32901 32902 28
26322 32901 32903 28
26323 32901 32904 28
26324 32901 32905 28
26325 32906 32907 28
26326 32906 32908 28
26327 32906 32909 28
26328 32906 32910 28
26329 32911 32912 28
26330 32911 32913 28
26331 32911 32914 28
26332 32911 32915 28
26333 32916 32917 28
26334 32916 32918 28
26335 32916 32919 28
26336 32916 32920 28
26337 32921 32922 28
26338 32921 32923 28
26339 32921 32924 28
26340 32921 32925 28
26341 32926 32927 28
26342 32926 32928 28
26343 32926 32929 28
26344 32926 32930 28
26345 32931 32932 28
26346 32931 32933 28
26347 32931 32934 28
26348 32931 32935 28
26349 32936 32937 28
26350 32936 32938 28
26351 32936 32939 28
26352 32936 32940 28
26353 32941 32942 28
26354 32941 32943 28
26355 32941 32944 28
26356 32941 32945 28
26357 32946 32947 28
26358 32946 32948 28
26359 32946 32949 28
26360 32946 32950 28
26361 32951 32952 28
26362 32951 32953 28
26363 32951 32954 28
26364 32951 32955 28
26365 32956 32957 28
26366 32956 32958 28
26367 32956 32959 28
26368 32956 32960 28
26369 32961 32962 28
26370 32961 32963 28
26371 32961 32964 28
26372 32961 32965 28
26373 32966 32967 28
26374 32966 32968 28
26375 32966 32969 28
26376 32966 32970 28
26377 32971 32972 28
26378 32971 32973 28
26379 32971 32974 28
26380 32971 32975 28
26381 32976 32977 28
26382 32976 32978 28
26383 32976 32979 28
26384 32976 32980 28
26385 32981 32982 28
26386 32981 32983 28
26387 32981 32984 28
26388 32981 32985 28
26389 32986 32987 28
26390 32986 32988 28
26391 32986 32989 28
26392 32986 32990 28
26393 32991 32992 28
26394 32991 32993 28
26395 32991 32994 28
26396 32991 32995 28
26397 32996 32997 28
26398 32996 32998 28
26399 32996 32999 28
26400 32996 33000 28
26401 33001 33002 28
26402 33001 33003 28
26403 33001 33004 28
26404 33001 33005 28
26405 33006 33007 28
26406 33006 33008 28
26407 33006 33009 28
26408 33006 33010 28
26409 33011 33012 28
26410 33011 33013 28
26411 33011 33014 28
26412 33011 33015 28
26413 33016 33017 28
26414 33016 33018 28
26415 33016 33019 28
26416 33016 33020 28
26417 33021 33022 28
26418 33021 33023 28
26419 33021 33024 28
26420 33021 33025 28
26421 33026 33027 28
26422 33026 33028 28
26423 33026 33029 28
26424 33026 33030 28
26425 33031 33032 28
26426 33031 33033 28
26427 33031 33034 28
26428 33031 33035 28
26429 33036 33037 28
26430 33036 33038 28
26431 33036 33039 28
26432 33036 33040 28
26433 33041 33042 28
26434 33041 33043 28
26435 33041 33044 28
26436 33041 33045 28
26437 33046 33047 28
26438 33046 33048 28
26439 33046 33049 28
26440 33046 33050 28
26441 33051 33052 28
26442 33051 33053 28
26443 33051 33054 28
26444 33051 33055 28
26445 33056 33057 28
26446 33056 33058 28
26447 33056 33059 28
26448 33056 33060 28
26449 33061 33062 28
26450 33061 33063 28
26451 33061 33064 28
26452 33061 33065 28
26453 33066 33067 28
26454 33066 33068 28
26455 33066 33069 28
26456 33066 33070 28
26457 33071 33072 28
26458 33071 33073 28
26459 33071 33074 28
26460 33071 33075 28
26461 33076 33077 28
26462 33076 33078 28
26463 33076 33079 28
26464 33076 33080 28
26465 33081 33082 28
26466 33081 33083 28
26467 33081 33084 28
26468 33081 33085 28
26469 33086 33087 28
26470 33086 33088 28
26471 33086 33089 28
26472 33086 33090 28
26473 33091 33092 28
26474 33091 33093 28
26475 33091 33094 28
26476 33091 33095 28
26477 33096 33097 28
26478 33096 33098 28
26479 33096 33099 28
26480 33096 33100 28
26481 33101 33102 28
26482 33101 33103 28
26483 33101 33104 28
26484 33101 33105 28
26485 33106 33107 28
26486 33106 33108 28
26487 33106 33109 28
26488 33106 33110 28
26489 33111 33112 28
26490 33111 33113 28
26491 33111 33114 28
26492 33111 33115 28
26493 33116 33117 28
26494 33116 33118 28
26495 33116 33119 28
26496 33116 33120 28
26497 33121 33122 28
26498 33121 33123 28
26499 33121 33124 28
26500 33121 33125 28
26501 33126 33127 28
26502 33126 33128 28
26503 33126 33129 28
26504 33126 33130 28
26505 33131 33132 28
26506 33131 33133 28
26507 33131 33134 28
26508 33131 33135 28
26509 33136 33137 28
26510 33136 33138 28
26511 33136 33139 28
26512 33136 33140 28
26513 33141 33142 28
26514 33141 33143 28
26515 33141 33144 28
26516 33141 33145 28
26517 33146 33147 28
26518 33146 33148 28
26519 33146 33149 28
26520 33146 33150 28
26521 33151 33152 28
26522 33151 33153 28
26523 33151 33154 28
26524 33151 33155 28
26525 33156 33157 28
26526 33156 33158 28
26527 33156 33159 28
26528 33156 33160 28
26529 33161 33162 28
26530 33161 33163 28
26531 33161 33164 28
26532 33161 33165 28
26533 33166 33167 28
26534 33166 33168 28
26535 33166 33169 28
26536 33166 33170 28
26537 33171 33172 28
26538 33171 33173 28
26539 33171 33174 28
26540 33171 33175 28
26541 33176 33177 28
26542 33176 33178 28
26543 33176 33179 28
26544 33176 33180 28
26545 33181 33182 28
26546 33181 33183 28
26547 33181 33184 28
26548 33181 33185 28
26549 33186 33187 28
26550 33186 33188 28
26551 33186 33189 28
26552 33186 33190 28
26553 33191 33192 28
26554 33191 33193 28
26555 33191 33194 28
26556 33191 33195 28
26557 33196 33197 28
26558 33196 33198 28
26559 33196 33199 28
26560 33196 33200 28
26561 33201 33202 28
26562 33201 33203 28
26563 33201 33204 28
26564 33201 33205 28
26565 33206 33207 28
26566 33206 33208 28
26567 33206 33209 28
26568 33206 33210 28
26569 33211 33212 28
26570 33211 33213 28
26571 33211 33214 28
26572 33211 33215 28
26573 33216 33217 28
26574 33216 33218 28
26575 33216 33219 28
26576 33216 33220 28
26577 33221 33222 28
26578 33221 33223 28
26579 33221 33224 28
26580 33221 33225 28
26581 33226 33227 28
26582 33226 33228 28
26583 33226 33229 28
26584 33226 33230 28
26585 33231 33232 28
26586 33231 33233 28
26587 33231 33234 28
26588 33231 33235 28
26589 33236 33237 28
26590 33236 33238 28
26591 33236 33239 28
26592 33236 33240 28
26593 33241 33242 28
26594 33241 33243 28
26595 33241 33244 28
26596 33241 33245 28
26597 33246 33247 28
26598 33246 33248 28
26599 33246 33249 28
26600 33246 33250 28
26601 33251 33252 28
26602 33251 33253 28
26603 33251 33254 28
26604 33251 33255 28
26605 33256 33257 28
26606 33256 33258 28
26607 33256 33259 28
26608 33256 33260 28
26609 33261 33262 28
26610 33261 33263 28
26611 33261 33264 28
26612 33261 33265 28
26613 33266 33267 28
26614 33266 33268 28
26615 33266 33269 28
26616 33266 33270 28
26617 33271 33272 28
26618 33271 33273 28
26619 33271 33274 28
26620 33271 33275 28
26621 33276 33277 28
26622 33276 33278 28
26623 33276 33279 28
26624 33276 33280 28
26625 33281 33282 28
26626 33281 33283 28
26627 33281 33284 28
26628 33281 33285 28
26629 33286 33287 28
26630 33286 33288 28
26631 33286 33289 28
26632 33286 33290 28
26633 33291 33292 28
26634 33291 33293 28
26635 33291 33294 28
26636 33291 33295 28
26637 33296 33297 28
26638 33296 33298 28
26639 33296 33299 28
26640 33296 33300 28
26641 33301 33302 28
26642 33301 33303 28
26643 33301 33304 28
26644 33301 33305 28
26645 33306 33307 28
26646 33306 33308 28
26647 33306 33309 28
26648 33306 33310 28
26649 33311 33312 28
26650 33311 33313 28
26651 33311 33314 28
26652 33311 33315 28
26653 33316 33317 28
26654 33316 33318 28
26655 33316 33319 28
26656 33316 33320 28
26657 33321 33322 28
26658 33321 33323 28
26659 33321 33324 28
26660 33321 33325 28
26661 33326 33327 28
26662 33326 33328 28
26663 33326 33329 28
26664 33326 33330 28
26665 33331 33332 28
26666 33331 33333 28
26667 33331 33334 28
26668 33331 33335 28
26669 33336 33337 28
26670 33336 33338 28
26671 33336 33339 28
26672 33336 33340 28
26673 33341 33342 28
26674 33341 33343 28
26675 33341 33344 28
26676 33341 33345 28
26677 33346 33347 28
26678 33346 33348 28
26679 33346 33349 28
26680 33346 33350 28
26681 33351 33352 28
26682 33351 33353 28
26683 33351 33354 28
26684 33351 33355 28
26685 33356 33357 28
26686 33356 33358 28
26687 33356 33359 28
26688 33356 33360 28
26689 33361 33362 28
26690 33361 33363 28
26691 33361 33364 28
26692 33361 33365 28
26693 33366 33367 28
26694 33366 33368 28
26695 33366 33369 28
26696 33366 33370 28
26697 33371 33372 28
26698 33371 33373 28
26699 33371 33374 28
26700 33371 33375 28
26701 33376 33377 28
26702 33376 33378 28
26703 33376 33379 28
26704 33376 33380 28
26705 33381 33382 28
26706 33381 33383 28
26707 33381 33384 28
26708 33381 33385 28
26709 33386 33387 28
26710 33386 33388 28
26711 33386 33389 28
26712 33386 33390 28
26713 33391 33392 28
26714 33391 33393 28
26715 33391 33394 28
26716 33391 33395 28
26717 33396 33397 28
26718 33396 33398 28
26719 33396 33399 28
26720 33396 33400 28
26721 33401 33402 28
26722 33401 33403 28
26723 33401 33404 28
26724 33401 33405 28
26725 33406 33407 28
26726 33406 33408 28
26727 33406 33409 28
26728 33406 33410 28
26729 33411 33412 28
26730 33411 33413 28
26731 33411 33414 28
26732 33411 33415 28
26733 33416 33417 28
26734 33416 33418 28
26735 33416 33419 28
26736 33416 33420 28
26737 33421 33422 28
26738 33421 33423 28
26739 33421 33424 28
26740 33421 33425 28
26741 33426 33427 28
26742 33426 33428 28
26743 33426 33429 28
26744 33426 33430 28
26745 33431 33432 28
26746 33431 33433 28
26747 33431 33434 28
26748 33431 33435 28
26749 33436 33437 28
26750 33436 33438 28
26751 33436 33439 28
26752 33436 33440 28
26753 33441 33442 28
26754 33441 33443 28
26755 33441 33444 28
26756 33441 33445 28
26757 33446 33447 28
26758 33446 33448 28
26759 33446 33449 28
26760 33446 33450 28
26761 33451 33452 28
26762 33451 33453 28
26763 33451 33454 28
26764 33451 33455 28
26765 33456 33457 28
26766 33456 33458 28
26767 33456 33459 28
26768 33456 33460 28
26769 33461 33462 28
26770 33461 33463 28
26771 33461 33464 28
26772 33461 33465 28
26773 33466 33467 28
26774 33466 33468 28
26775 33466 33469 28
26776 33466 33470 28
26777 33471 33472 28
26778 33471 33473 28
26779 33471 33474 28
26780 33471 33475 28
26781 33476 33477 28
26782 33476 33478 28
26783 33476 33479 28
26784 33476 33480 28
26785 33481 33482 28
26786 33481 33483 28
26787 33481 33484 28
26788 33481 33485 28
26789 33486 33487 28
26790 33486 33488 28
26791 33486 33489 28
26792 33486 33490 28
26793 33491 33492 28
26794 33491 33493 28
26795 33491 33494 28
26796 33491 33495 28
26797 33496 33497 28
26798 33496 33498 28
26799 33496 33499 28
26800 33496 33500 28
26801 33501 33502 28
26802 33501 33503 28
26803 33501 33504 28
26804 33501 33505 28
26805 33506 33507 28
26806 33506 33508 28
26807 33506 33509 28
26808 33506 33510 28
26809 33511 33512 28
26810 33511 33513 28
26811 33511 33514 28
26812 33511 33515 28
26813 33516 33517 28
26814 33516 33518 28
26815 33516 33519 28
26816 33516 33520 28
26817 33521 33522 28
26818 33521 33523 28
26819 33521 33524 28
26820 33521 33525 28
26821 33526 33527 28
26822 33526 33528 28
26823 33526 33529 28
26824 33526 33530 28
26825 33531 33532 28
26826 33531 33533 28
26827 33531 33534 28
26828 33531 33535 28
26829 33536 33537 28
26830 33536 33538 28
26831 33536 33539 28
26832 33536 33540 28
26833 33541 33542 28
26834 33541 33543 28
26835 33541 33544 28
26836 33541 33545 28
26837 33546 33547 28
26838 33546 33548 28
26839 33546 33549 28
26840 33546 33550 28
26841 33551 33552 28
26842 33551 33553 28
26843 33551 33554 28
26844 33551 33555 28
26845 33556 33557 28
26846 33556 33558 28
26847 33556 33559 28
26848 33556 33560 28
26849 33561 33562 28
26850 33561 33563 28
26851 33561 33564 28
26852 33561 33565 28
26853 33566 33567 28
26854 33566 33568 28
26855 33566 33569 28
26856 33566 33570 28
26857 33571 33572 28
26858 33571 33573 28
26859 33571 33574 28
26860 33571 33575 28
26861 33576 33577 28
26862 33576 33578 28
26863 33576 33579 28
26864 33576 33580 28
26865 33581 33582 28
26866 33581 33583 28
26867 33581 33584 28
26868 33581 33585 28
26869 33586 33587 28
26870 33586 33588 28
26871 33586 33589 28
26872 33586 33590 28
26873 33591 33592 28
26874 33591 33593 28
26875 33591 33594 28
26876 33591 33595 28
26877 33596 33597 28
26878 33596 33598 28
26879 33596 33599 28
26880 33596 33600 28
26881 33601 33602 28
26882 33601 33603 28
26883 33601 33604 28
26884 33601 33605 28
26885 33606 33607 28
26886 33606 33608 28
26887 33606 33609 28
26888 33606 33610 28
26889 33611 33612 28
26890 33611 33613 28
26891 33611 33614 28
26892 33611 33615 28
26893 33616 33617 28
26894 33616 33618 28
26895 33616 33619 28
26896 33616 33620 28
26897 33621 33622 28
26898 33621 33623 28
26899 33621 33624 28
26900 33621 33625 28
26901 33626 33627 28
26902 33626 33628 28
26903 33626 33629 28
26904 33626 33630 28
26905 33631 33632 28
26906 33631 33633 28
26907 33631 33634 28
26908 33631 33635 28
26909 33636 33637 28
26910 33636 33638 28
26911 33636 33639 28
26912 33636 33640 28
26913 33641 33642 28
26914 33641 33643 28
26915 33641 33644 28
26916 33641 33645 28
26917 33646 33647 28
26918 33646 33648 28
26919 33646 33649 28
26920 33646 33650 28
26921 33651 33652 28
26922 33651 33653 28
26923 33651 33654 28
26924 33651 33655 28
26925 33656 33657 28
26926 33656 33658 28
26927 33656 33659 28
26928 33656 33660 28
26929 33661 33662 28
26930 33661 33663 28
26931 33661 33664 28
26932 33661 33665 28
26933 33666 33667 28
26934 33666 33668 28
26935 33666 33669 28
26936 33666 33670 28
26937 33671 33672 28
26938 33671 33673 28
26939 33671 33674 28
26940 33671 33675 28
26941 33676 33677 28
26942 33676 33678 28
26943 33676 33679 28
26944 33676 33680 28
26945 33681 33682 28
26946 33681 33683 28
26947 33681 33684 28
26948 33681 33685 28
26949 33686 33687 28
26950 33686 33688 28
26951 33686 33689 28
26952 33686 33690 28
26953 33691 33692 28
26954 33691 33693 28
26955 33691 33694 28
26956 33691 33695 28
26957 33696 33697 28
26958 33696 33698 28
26959 33696 33699 28
26960 33696 33700 28
26961 33701 33702 28
26962 33701 33703 28
26963 33701 33704 28
26964 33701 33705 28
26965 33706 33707 28
26966 33706 33708 28
26967 33706 33709 28
26968 33706 33710 28
26969 33711 33712 28
26970 33711 33713 28
26971 33711 33714 28
26972 33711 33715 28
26973 33716 33717 28
26974 33716 33718 28
26975 33716 33719 28
26976 33716 33720 28
26977 33721 33722 28
26978 33721 33723 28
26979 33721 33724 28
26980 33721 33725 28
26981 33726 33727 28
26982 33726 33728 28
26983 33726 33729 28
26984 33726 33730 28
26985 33731 33732 28
26986 33731 33733 28
26987 33731 33734 28
26988 33731 33735 28
26989 33736 33737 28
26990 33736 33738 28
26991 33736 33739 28
26992 33736 33740 28
26993 33741 33742 28
26994 33741 33743 28
26995 33741 33744 28
26996 33741 33745 28
26997 33746 33747 28
26998 33746 33748 28
26999 33746 33749 28
27000 33746 33750 28
27001 33751 33752 28
27002 33751 33753 28
27003 33751 33754 28
27004 33751 33755 28
27005 33756 33757 28
27006 33756 33758 28
27007 33756 33759 28
27008 33756 33760 28
27009 33761 33762 28
27010 33761 33763 28
27011 33761 33764 28
27012 33761 33765 28
27013 33766 33767 28
27014 33766 33768 28
27015 33766 33769 28
27016 33766 33770 28
27017 33771 33772 28
27018 33771 33773 28
27019 33771 33774 28
27020 33771 33775 28
27021 33776 33777 28
27022 33776 33778 28
27023 33776 33779 28
27024 33776 33780 28
27025 33781 33782 28
27026 33781 33783 28
27027 33781 33784 28
27028 33781 33785 28
27029 33786 33787 28
27030 33786 33788 28
27031 33786 33789 28
27032 33786 33790 28
27033 33791 33792 28
27034 33791 33793 28
27035 33791 33794 28
27036 33791 33795 28
27037 33796 33797 28
27038 33796 33798 28
27039 33796 33799 28
27040 33796 33800 28
27041 33801 33802 28
27042 33801 33803 28
27043 33801 33804 28
27044 33801 33805 28
27045 33806 33807 28
27046 33806 33808 28
27047 33806 33809 28
27048 33806 33810 28
27049 33811 33812 28
27050 33811 33813 28
27051 33811 33814 28
27052 33811 33815 28
27053 33816 33817 28
27054 33816 33818 28
27055 33816 33819 28
27056 33816 33820 28
27057 33821 33822 28
27058 33821 33823 28
27059 33821 33824 28
27060 33821 33825 28
27061 33826 33827 28
27062 33826 33828 28
27063 33826 33829 28
27064 33826 33830 28
27065 33831 33832 28
27066 33831 33833 28
27067 33831 33834 28
27068 33831 33835 28
27069 33836 33837 28
27070 33836 33838 28
27071 33836 33839 28
27072 33836 33840 28
27073 33841 33842 28
27074 33841 33843 28
27075 33841 33844 28
27076 33841 33845 28
27077 33846 33847 28
27078 33846 33848 28
27079 33846 33849 28
27080 33846 33850 28
27081 33851 33852 28
27082 33851 33853 28
27083 33851 33854 28
27084 33851 33855 28
27085 33856 33857 28
27086 33856 33858 28
27087 33856 33859 28
27088 33856 33860 28
27089 33861 33862 28
27090 33861 33863 28
27091 33861 33864 28
27092 33861 33865 28
27093 33866 33867 28
27094 33866 33868 28
27095 33866 33869 28
27096 33866 33870 28
27097 33871 33872 28
27098 33871 33873 28
27099 33871 33874 28
27100 33871 33875 28
27101 33876 33877 28
27102 33876 33878 28
27103 33876 33879 28
27104 33876 33880 28
27105 33881 33882 28
27106 33881 33883 28
27107 33881 33884 28
27108 33881 33885 28
27109 33886 33887 28
27110 33886 33888 28
27111 33886 33889 28
27112 33886 33890 28
27113 33891 33892 28
27114 33891 33893 28
27115 33891 33894 28
27116 33891 33895 28
27117 33896 33897 28
27118 33896 33898 28
27119 33896 33899 28
27120 33896 33900 28
27121 33901 33902 28
27122 33901 33903 28
27123 33901 33904 28
27124 33901 33905 28
27125 33906 33907 28
27126 33906 33908 28
27127 33906 33909 28
27128 33906 33910 28
27129 33911 33912 28
27130 33911 33913 28
27131 33911 33914 28
27132 33911 33915 28
27133 33916 33917 28
27134 33916 33918 28
27135 33916 33919 28
27136 33916 33920 28
27137 33921 33922 28
27138 33921 33923 28
27139 33921 33924 28
27140 33921 33925 28
27141 33926 33927 28
27142 33926 33928 28
27143 33926 33929 28
27144 33926 33930 28
27145 33931 33932 28
27146 33931 33933 28
27147 33931 33934 28
27148 33931 33935 28
27149 33936 33937 28
27150 33936 33938 28
27151 33936 33939 28
27152 33936 33940 28
27153 33941 33942 28
27154 33941 33943 28
27155 33941 33944 28
27156 33941 33945 28
27157 33946 33947 28
27158 33946 33948 28
27159 33946 33949 28
27160 33946 33950 28
27161 33951 33952 28
27162 33951 33953 28
27163 33951 33954 28
27164 33951 33955 28
27165 33956 33957 28
27166 33956 33958 28
27167 33956 33959 28
27168 33956 33960 28
27169 33961 33962 28
27170 33961 33963 28
27171 33961 33964 28
27172 33961 33965 28
27173 33966 33967 28
27174 33966 33968 28
27175 33966 33969 28
27176 33966 33970 28
27177 33971 33972 28
27178 33971 33973 28
27179 33971 33974 28
27180 33971 33975 28
27181 33976 33977 28
27182 33976 33978 28
27183 33976 33979 28
27184 33976 33980 28
27185 33981 33982 28
27186 33981 33983 28
27187 33981 33984 28
27188 33981 33985 28
27189 33986 33987 28
27190 33986 33988 28
27191 33986 33989 28
27192 33986 33990 28
27193 33991 33992 28
27194 33991 33993 28
27195 33991 33994 28
27196 33991 33995 28
27197 33996 33997 28
27198 33996 33998 28
27199 33996 33999 28
27200 33996 34000 28
27201 34001 34002 28
27202 34001 34003 28
27203 34001 34004 28
27204 34001 34005 28
27205 34006 34007 28
27206 34006 34008 28
27207 34006 34009 28
27208 34006 34010 28
27209 34011 34012 28
27210 34011 34013 28
27211 34011 34014 28
27212 34011 34015 28
27213 34016 34017 28
27214 34016 34018 28
27215 34016 34019 28
27216 34016 34020 28
27217 34021 34022 28
27218 34021 34023 28
27219 34021 34024 28
27220 34021 34025 28
27221 34026 34027 28
27222 34026 34028 28
27223 34026 34029 28
27224 34026 34030 28
27225 34031 34032 28
27226 34031 34033 28
27227 34031 34034 28
27228 34031 34035 28
27229 34036 34037 28
27230 34036 34038 28
27231 34036 34039 28
27232 34036 34040 28
27233 34041 34042 28
27234 34041 34043 28
27235 34041 34044 28
27236 34041 34045 28
27237 34046 34047 28
27238 34046 34048 28
27239 34046 34049 28
27240 34046 34050 28
27241 34051 34052 28
27242 34051 34053 28
27243 34051 34054 28
27244 34051 34055 28
27245 34056 34057 28
27246 34056 34058 28
27247 34056 34059 28
27248 34056 34060 28
27249 34061 34062 28
27250 34061 34063 28
27251 34061 34064 28
27252 34061 34065 28
27253 34066 34067 28
27254 34066 34068 28
27255 34066 34069 28
27256 34066 34070 28
27257 34071 34072 28
27258 34071 34073 28
27259 34071 34074 28
27260 34071 34075 28
27261 34076 34077 28
27262 34076 34078 28
27263 34076 34079 28
27264 34076 34080 28
27265 34081 34082 28
27266 34081 34083 28
27267 34081 34084 28
27268 34081 34085 28
27269 34086 34087 28
27270 34086 34088 28
27271 34086 34089 28
27272 34086 34090 28
27273 34091 34092 28
27274 34091 34093 28
27275 34091 34094 28
27276 34091 34095 28
27277 34096 34097 28
27278 34096 34098 28
27279 34096 34099 28
27280 34096 34100 28
27281 34101 34102 28
27282 34101 34103 28
27283 34101 34104 28
27284 34101 34105 28
27285 34106 34107 28
27286 34106 34108 28
27287 34106 34109 28
27288 34106 34110 28
27289 34111 34112 28
27290 34111 34113 28
27291 34111 34114 28
27292 34111 34115 28
27293 34116 34117 28
27294 34116 34118 28
27295 34116 34119 28
27296 34116 34120 28
27297 34121 34122 28
27298 34121 34123 28
27299 34121 34124 28
27300 34121 34125 28
27301 34126 34127 28
27302 34126 34128 28
27303 34126 34129 28
27304 34126 34130 28
27305 34131 34132 28
27306 34131 34133 28
27307 34131 34134 28
27308 34131 34135 28
27309 34136 34137 28
27310 34136 34138 28
27311 34136 34139 28
27312 34136 34140 28
27313 34141 34142 28
27314 34141 34143 28
27315 34141 34144 28
27316 34141 34145 28
27317 34146 34147 28
27318 34146 34148 28
27319 34146 34149 28
27320 34146 34150 28
27321 34151 34152 28
27322 34151 34153 28
27323 34151 34154 28
27324 34151 34155 28
27325 34156 34157 28
27326 34156 34158 28
27327 34156 34159 28
27328 34156 34160 28
27329 34161 34162 28
27330 34161 34163 28
27331 34161 34164 28
27332 34161 34165 28
27333 34166 34167 28
27334 34166 34168 28
27335 34166 34169 28
27336 34166 34170 28
27337 34171 34172 28
27338 34171 34173 28
27339 34171 34174 28
27340 34171 34175 28
27341 34176 34177 28
27342 34176 34178 28
27343 34176 34179 28
27344 34176 34180 28
27345 34181 34182 28
27346 34181 34183 28
27347 34181 34184 28
27348 34181 34185 28
27349 34186 34187 28
27350 34186 34188 28
27351 34186 34189 28
27352 34186 34190 28
27353 34191 34192 28
27354 34191 34193 28
27355 34191 34194 28
27356 34191 34195 28
27357 34196 34197 28
27358 34196 34198 28
27359 34196 34199 28
27360 34196 34200 28
27361 34201 34202 28
27362 34201 34203 28
27363 34201 34204 28
27364 34201 34205 28
27365 34206 34207 28
27366 34206 34208 28
27367 34206 34209 28
27368 34206 34210 28
27369 34211 34212 28
27370 34211 34213 28
27371 34211 34214 28
27372 34211 34215 28
27373 34216 34217 28
27374 34216 34218 28
27375 34216 34219 28
27376 34216 34220 28
27377 34221 34222 28
27378 34221 34223 28
27379 34221 34224 28
27380 34221 34225 28
27381 34226 34227 28
27382 34226 34228 28
27383 34226 34229 28
27384 34226 34230 28
27385 34231 34232 28
27386 34231 34233 28
27387 34231 34234 28
27388 34231 34235 28
27389 34236 34237 28
27390 34236 34238 28
27391 34236 34239 28
27392 34236 34240 28
27393 34241 34242 28
27394 34241 34243 28
27395 34241 34244 28
27396 34241 34245 28
27397 34246 34247 28
27398 34246 34248 28
27399 34246 34249 28
27400 34246 34250 28
27401 34251 34252 28
27402 34251 34253 28
27403 34251 34254 28
27404 34251 34255 28
27405 34256 34257 28
27406 34256 34258 28
27407 34256 34259 28
27408 34256 34260 28
27409 34261 34262 28
27410 34261 34263 28
27411 34261 34264 28
27412 34261 34265 28
27413 34266 34267 28
27414 34266 34268 28
27415 34266 34269 28
27416 34266 34270 28
27417 34271 34272 28
27418 34271 34273 28
27419 34271 34274 28
27420 34271 34275 28
27421 34276 34277 28
27422 34276 34278 28
27423 34276 34279 28
27424 34276 34280 28
27425 34281 34282 28
27426 34281 34283 28
27427 34281 34284 28
27428 34281 34285 28
27429 34286 34287 28
27430 34286 34288 28
27431 34286 34289 28
27432 34286 34290 28
27433 34291 34292 28
27434 34291 34293 28
27435 34291 34294 28
27436 34291 34295 28
27437 34296 34297 28
27438 34296 34298 28
27439 34296 34299 28
27440 34296 34300 28
27441 34301 34302 28
27442 34301 34303 28
27443 34301 34304 28
27444 34301 34305 28
27445 34306 34307 28
27446 34306 34308 28
27447 34306 34309 28
27448 34306 34310 28
27449 34311 34312 28
27450 34311 34313 28
27451 34311 34314 28
27452 34311 34315 28
27453 34316 34317 28
27454 34316 34318 28
27455 34316 34319 28
27456 34316 34320 28
27457 34321 34322 28
27458 34321 34323 28
27459 34321 34324 28
27460 34321 34325 28
27461 34326 34327 28
27462 34326 34328 28
27463 34326 34329 28
27464 34326 34330 28
27465 34331 34332 28
27466 34331 34333 28
27467 34331 34334 28
27468 34331 34335 28
27469 34336 34337 28
27470 34336 34338 28
27471 34336 34339 28
27472 34336 34340 28
27473 34341 34342 28
27474 34341 34343 28
27475 34341 34344 28
27476 34341 34345 28
27477 34346 34347 28
27478 34346 34348 28
27479 34346 34349 28
27480 34346 34350 28
27481 34351 34352 28
27482 34351 34353 28
27483 34351 34354 28
27484 34351 34355 28
27485 34356 34357 28
27486 34356 34358 28
27487 34356 34359 28
27488 34356 34360 28
27489 34361 34362 28
27490 34361 34363 28
27491 34361 34364 28
27492 34361 34365 28
27493 34366 34367 28
27494 34366 34368 28
27495 34366 34369 28
27496 34366 34370 28
27497 34371 34372 28
27498 34371 34373 28
27499 34371 34374 28
27500 34371 34375 28
27501 34376 34377 28
27502 34376 34378 28
27503 34376 34379 28
27504 34376 34380 28
27505 34381 34382 28
27506 34381 34383 28
27507 34381 34384 28
27508 34381 34385 28
27509 34386 34387 28
27510 34386 34388 28
27511 34386 34389 28
27512 34386 34390 28
27513 34391 34392 28
27514 34391 34393 28
27515 34391 34394 28
27516 34391 34395 28
27517 34396 34397 28
27518 34396 34398 28
27519 34396 34399 28
27520 34396 34400 28
27521 34401 34402 28
27522 34401 34403 28
27523 34401 34404 28
27524 34401 34405 28
27525 34406 34407 28
27526 34406 34408 28
27527 34406 34409 28
27528 34406 34410 28
27529 34411 34412 28
27530 34411 34413 28
27531 34411 34414 28
27532 34411 34415 28
27533 34416 34417 28
27534 34416 34418 28
27535 34416 34419 28
27536 34416 34420 28
27537 34421 34422 28
27538 34421 34423 28
27539 34421 34424 28
27540 34421 34425 28
27541 34426 34427 28
27542 34426 34428 28
27543 34426 34429 28
27544 34426 34430 28
27545 34431 34432 28
27546 34431 34433 28
27547 34431 34434 28
27548 34431 34435 28
27549 34436 34437 28
27550 34436 34438 28
27551 34436 34439 28
27552 34436 34440 28
27553 34441 34442 28
27554 34441 34443 28
27555 34441 34444 28
27556 34441 34445 28
27557 34446 34447 28
27558 34446 34448 28
27559 34446 34449 28
27560 34446 34450 28
27561 34451 34452 28
27562 34451 34453 28
27563 34451 34454 28
27564 34451 34455 28
27565 34456 34457 28
27566 34456 34458 28
27567 34456 34459 28
27568 34456 34460 28
27569 34461 34462 28
27570 34461 34463 28
27571 34461 34464 28
27572 34461 34465 28
27573 34466 34467 28
27574 34466 34468 28
27575 34466 34469 28
27576 34466 34470 28
27577 34471 34472 28
27578 34471 34473 28
27579 34471 34474 28
27580 34471 34475 28
27581 34476 34477 28
27582 34476 34478 28
27583 34476 34479 28
27584 34476 34480 28
27585 34481 34482 28
27586 34481 34483 28
27587 34481 34484 28
27588 34481 34485 28
27589 34486 34487 28
27590 34486 34488 28
27591 34486 34489 28
27592 34486 34490 28
27593 34491 34492 28
27594 34491 34493 28
27595 34491 34494 28
27596 34491 34495 28
27597 34496 34497 28
27598 34496 34498 28
27599 34496 34499 28
27600 34496 34500 28
27601 34501 34502 28
27602 34501 34503 28
27603 34501 34504 28
27604 34501 34505 28
27605 34506 34507 28
27606 34506 34508 28
27607 34506 34509 28
27608 34506 34510 28
27609 34511 34512 28
27610 34511 34513 28
27611 34511 34514 28
27612 34511 34515 28
27613 34516 34517 28
27614 34516 34518 28
27615 34516 34519 28
27616 34516 34520 28
27617 34521 34522 28
27618 34521 34523 28
27619 34521 34524 28
27620 34521 34525 28
27621 34526 34527 28
27622 34526 34528 28
27623 34526 34529 28
27624 34526 34530 28
27625 34531 34532 28
27626 34531 34533 28
27627 34531 34534 28
27628 34531 34535 28
27629 34536 34537 28
27630 34536 34538 28
27631 34536 34539 28
27632 34536 34540 28
27633 34541 34542 28
27634 34541 34543 28
27635 34541 34544 28
27636 34541 34545 28
27637 34546 34547 28
27638 34546 34548 28
27639 34546 34549 28
27640 34546 34550 28
27641 34551 34552 28
27642 34551 34553 28
27643 34551 34554 28
27644 34551 34555 28
27645 34556 34557 28
27646 34556 34558 28
27647 34556 34559 28
27648 34556 34560 28
27649 34561 34562 28
27650 34561 34563 28
27651 34561 34564 28
27652 34561 34565 28
27653 34566 34567 28
27654 34566 34568 28
27655 34566 34569 28
27656 34566 34570 28
27657 34571 34572 28
27658 34571 34573 28
27659 34571 34574 28
27660 34571 34575 28
27661 34576 34577 28
27662 34576 34578 28
27663 34576 34579 28
27664 34576 34580 28
27665 34581 34582 28
27666 34581 34583 28
27667 34581 34584 28
27668 34581 34585 28
27669 34586 34587 28
27670 34586 34588 28
27671 34586 34589 28
27672 34586 34590 28
27673 34591 34592 28
27674 34591 34593 28
27675 34591 34594 28
27676 34591 34595 28
27677 34596 34597 28
27678 34596 34598 28
27679 34596 34599 28
27680 34596 34600 28
27681 34601 34602 28
27682 34601 34603 28
27683 34601 34604 28
27684 34601 34605 28
27685 34606 34607 28
27686 34606 34608 28
27687 34606 34609 28
27688 34606 34610 28
27689 34611 34612 28
27690 34611 34613 28
27691 34611 34614 28
27692 34611 34615 28
27693 34616 34617 28
27694 34616 34618 28
27695 34616 34619 28
27696 34616 34620 28
27697 34621 34622 28
27698 34621 34623 28
27699 34621 34624 28
27700 34621 34625 28
27701 34626 34627 28
27702 34626 34628 28
27703 34626 34629 28
27704 34626 34630 28
27705 34631 34632 28
27706 34631 34633 28
27707 34631 34634 28
27708 34631 34635 28
27709 34636 34637 28
27710 34636 34638 28
27711 34636 34639 28
27712 34636 34640 28
27713 34641 34642 28
27714 34641 34643 28
27715 34641 34644 28
27716 34641 34645 28
27717 34646 34647 28
27718 34646 34648 28
27719 34646 34649 28
27720 34646 34650 28
27721 34651 34652 28
27722 34651 34653 28
27723 34651 34654 28
27724 34651 34655 28
27725 34656 34657 28
27726 34656 34658 28
27727 34656 34659 28
27728 34656 34660 28
27729 34661 34662 28
27730 34661 34663 28
27731 34661 34664 28
27732 34661 34665 28
27733 34666 34667 28
27734 34666 34668 28
27735 34666 34669 28
27736 34666 34670 28
27737 34671 34672 28
27738 34671 34673 28
27739 34671 34674 28
27740 34671 34675 28
27741 34676 34677 28
27742 34676 34678 28
27743 34676 34679 28
27744 34676 34680 28
27745 34681 34682 28
27746 34681 34683 28
27747 34681 34684 28
27748 34681 34685 28
27749 34686 34687 28
27750 34686 34688 28
27751 34686 34689 28
27752 34686 34690 28
27753 34691 34692 28
27754 34691 34693 28
27755 34691 34694 28
27756 34691 34695 28
27757 34696 34697 28
27758 34696 34698 28
27759 34696 34699 28
27760 34696 34700 28
27761 34701 34702 28
27762 34701 34703 28
27763 34701 34704 28
27764 34701 34705 28
27765 34706 34707 28
27766 34706 34708 28
27767 34706 34709 28
27768 34706 34710 28
27769 34711 34712 28
27770 34711 34713 28
27771 34711 34714 28
27772 34711 34715 28
27773 34716 34717 28
27774 34716 34718 28
27775 34716 34719 28
27776 34716 34720 28
27777 34721 34722 28
27778 34721 34723 28
27779 34721 34724 28
27780 34721 34725 28
27781 34726 34727 28
27782 34726 34728 28
27783 34726 34729 28
27784 34726 34730 28
27785 34731 34732 28
27786 34731 34733 28
27787 34731 34734 28
27788 34731 34735 28
27789 34736 34737 28
27790 34736 34738 28
27791 34736 34739 28
27792 34736 34740 28
27793 34741 34742 28
27794 34741 34743 28
27795 34741 34744 28
27796 34741 34745 28
27797 34746 34747 28
27798 34746 34748 28
27799 34746 34749 28
27800 34746 34750 28
27801 34751 34752 28
27802 34751 34753 28
27803 34751 34754 28
27804 34751 34755 28
27805 34756 34757 28
27806 34756 34758 28
27807 34756 34759 28
27808 34756 34760 28
27809 34761 34762 28
27810 34761 34763 28
27811 34761 34764 28
27812 34761 34765 28
27813 34766 34767 28
27814 34766 34768 28
27815 34766 34769 28
27816 34766 34770 28
27817 34771 34772 28
27818 34771 34773 28
27819 34771 34774 28
27820 34771 34775 28
27821 34776 34777 28
27822 34776 34778 28
27823 34776 34779 28
27824 34776 34780 28
27825 34781 34782 28
27826 34781 34783 28
27827 34781 34784 28
27828 34781 34785 28
27829 34786 34787 28
27830 34786 34788 28
27831 34786 34789 28
27832 34786 34790 28
27833 34791 34792 28
27834 34791 34793 28
27835 34791 34794 28
27836 34791 34795 28
27837 34796 34797 28
27838 34796 34798 28
27839 34796 34799 28
27840 34796 34800 28
27841 34801 34802 28
27842 34801 34803 28
27843 34801 34804 28
27844 34801 34805 28
27845 34806 34807 28
27846 34806 34808 28
27847 34806 34809 28
27848 34806 34810 28
27849 34811 34812 28
27850 34811 34813 28
27851 34811 34814 28
27852 34811 34815 28
27853 34816 34817 28
27854 34816 34818 28
27855 34816 34819 28
27856 34816 34820 28
27857 34821 34822 28
27858 34821 34823 28
27859 34821 34824 28
27860 34821 34825 28
27861 34826 34827 28
27862 34826 34828 28
27863 34826 34829 28
27864 34826 34830 28
27865 34831 34832 28
27866 34831 34833 28
27867 34831 34834 28
27868 34831 34835 28
27869 34836 34837 28
27870 34836 34838 28
27871 34836 34839 28
27872 34836 34840 28
27873 34841 34842 28
27874 34841 34843 28
27875 34841 34844 28
27876 34841 34845 28
27877 34846 34847 28
27878 34846 34848 28
27879 34846 34849 28
27880 34846 34850 28
27881 34851 34852 28
27882 34851 34853 28
27883 34851 34854 28
27884 34851 34855 28
27885 34856 34857 28
27886 34856 34858 28
27887 34856 34859 28
27888 34856 34860 28
27889 34861 34862 28
27890 34861 34863 28
27891 34861 34864 28
27892 34861 34865 28
27893 34866 34867 28
27894 34866 34868 28
27895 34866 34869 28
27896 34866 34870 28
27897 34871 34872 28
27898 34871 34873 28
27899 34871 34874 28
27900 34871 34875 28
27901 34876 34877 28
27902 34876 34878 28
27903 34876 34879 28
27904 34876 34880 28
27905 34881 34882 28
27906 34881 34883 28
27907 34881 34884 28
27908 34881 34885 28
27909 34886 34887 28
27910 34886 34888 28
27911 34886 34889 28
27912 34886 34890 28
27913 34891 34892 28
27914 34891 34893 28
27915 34891 34894 28
27916 34891 34895 28
27917 34896 34897 28
27918 34896 34898 28
27919 34896 34899 28
27920 34896 34900 28
27921 34901 34902 28
27922 34901 34903 28
27923 34901 34904 28
27924 34901 34905 28
27925 34906 34907 28
27926 34906 34908 28
27927 34906 34909 28
27928 34906 34910 28
27929 34911 34912 28
27930 34911 34913 28
27931 34911 34914 28
27932 34911 34915 28
27933 34916 34917 28
27934 34916 34918 28
27935 34916 34919 28
27936 34916 34920 28
27937 34921 34922 28
27938 34921 34923 28
27939 34921 34924 28
27940 34921 34925 28
27941 34926 34927 28
27942 34926 34928 28
27943 34926 34929 28
27944 34926 34930 28
27945 34931 34932 28
27946 34931 34933 28
27947 34931 34934 28
27948 34931 34935 28
27949 34936 34937 28
27950 34936 34938 28
27951 34936 34939 28
27952 34936 34940 28
27953 34941 34942 28
27954 34941 34943 28
27955 34941 34944 28
27956 34941 34945 28
27957 34946 34947 28
27958 34946 34948 28
27959 34946 34949 28
27960 34946 34950 28
27961 34951 34952 28
27962 34951 34953 28
27963 34951 34954 28
27964 34951 34955 28
27965 34956 34957 28
27966 34956 34958 28
27967 34956 34959 28
27968 34956 34960 28
27969 34961 34962 28
27970 34961 34963 28
27971 34961 34964 28
27972 34961 34965 28
27973 34966 34967 28
27974 34966 34968 28
27975 34966 34969 28
27976 34966 34970 28
27977 34971 34972 28
27978 34971 34973 28
27979 34971 34974 28
27980 34971 34975 28
27981 34976 34977 28
27982 34976 34978 28
27983 34976 34979 28
27984 34976 34980 28
27985 34981 34982 28
27986 34981 34983 28
27987 34981 34984 28
27988 34981 34985 28
27989 34986 34987 28
27990 34986 34988 28
27991 34986 34989 28
27992 34986 34990 28
27993 34991 34992 28
27994 34991 34993 28
27995 34991 34994 28
27996 34991 34995 28
27997 34996 34997 28
27998 34996 34998 28
27999 34996 34999 28
28000 34996 35000 28
28001 35001 35002 28
28002 35001 35003 28
28003 35001 35004 28
28004 35001 35005 28
28005 35006 35007 28
28006 35006 35008 28
28007 35006 35009 28
28008 35006 35010 28
28009 35011 35012 28
28010 35011 35013 28
28011 35011 35014 28
28012 35011 35015 28
28013 35016 35017 28
28014 35016 35018 28
28015 35016 35019 28
28016 35016 35020 28
28017 35021 35022 28
28018 35021 35023 28
28019 35021 35024 28
28020 35021 35025 28
28021 35026 35027 28
28022 35026 35028 28
28023 35026 35029 28
28024 35026 35030 28
28025 35031 35032 28
28026 35031 35033 28
28027 35031 35034 28
28028 35031 35035 28
28029 35036 35037 28
28030 35036 35038 28
28031 35036 35039 28
28032 35036 35040 28
28033 35041 35042 28
28034 35041 35043 28
28035 35041 35044 28
28036 35041 35045 28
28037 35046 35047 28
28038 35046 35048 28
28039 35046 35049 28
28040 35046 35050 28
28041 35051 35052 28
28042 35051 35053 28
28043 35051 35054 28
28044 35051 35055 28
28045 35056 35057 28
28046 35056 35058 28
28047 35056 35059 28
28048 35056 35060 28
28049 35061 35062 28
28050 35061 35063 28
28051 35061 35064 28
28052 35061 35065 28
28053 35066 35067 28
28054 35066 35068 28
28055 35066 35069 28
28056 35066 35070 28
28057 35071 35072 28
28058 35071 35073 28
28059 35071 35074 28
28060 35071 35075 28
28061 35076 35077 28
28062 35076 35078 28
28063 35076 35079 28
28064 35076 35080 28
28065 35081 35082 28
28066 35081 35083 28
28067 35081 35084 28
28068 35081 35085 28
28069 35086 35087 28
28070 35086 35088 28
28071 35086 35089 28
28072 35086 35090 28
28073 35091 35092 28
28074 35091 35093 28
28075 35091 35094 28
28076 35091 35095 28
28077 35096 35097 28
28078 35096 35098 28
28079 35096 35099 28
28080 35096 35100 28
28081 35101 35102 28
28082 35101 35103 28
28083 35101 35104 28
28084 35101 35105 28
28085 35106 35107 28
28086 35106 35108 28
28087 35106 35109 28
28088 35106 35110 28
28089 35111 35112 28
28090 35111 35113 28
28091 35111 35114 28
28092 35111 35115 28
28093 35116 35117 28
28094 35116 35118 28
28095 35116 35119 28
28096 35116 35120 28
28097 35121 35122 28
28098 35121 35123 28
28099 35121 35124 28
28100 35121 35125 28
28101 35126 35127 28
28102 35126 35128 28
28103 35126 35129 28
28104 35126 35130 28
28105 35131 35132 28
28106 35131 35133 28
28107 35131 35134 28
28108 35131 35135 28
28109 35136 35137 28
28110 35136 35138 28
28111 35136 35139 28
28112 35136 35140 28
28113 35141 35142 28
28114 35141 35143 28
28115 35141 35144 28
28116 35141 35145 28
28117 35146 35147 28
28118 35146 35148 28
28119 35146 35149 28
28120 35146 35150 28
28121 35151 35152 28
28122 35151 35153 28
28123 35151 35154 28
28124 35151 35155 28
28125 35156 35157 28
28126 35156 35158 28
28127 35156 35159 28
28128 35156 35160 28
28129 35161 35162 28
28130 35161 35163 28
28131 35161 35164 28
28132 35161 35165 28
28133 35166 35167 28
28134 35166 35168 28
28135 35166 35169 28
28136 35166 35170 28
28137 35171 35172 28
28138 35171 35173 28
28139 35171 35174 28
28140 35171 35175 28
28141 35176 35177 28
28142 35176 35178 28
28143 35176 35179 28
28144 35176 35180 28
28145 35181 35182 28
28146 35181 35183 28
28147 35181 35184 28
28148 35181 35185 28
28149 35186 35187 28
28150 35186 35188 28
28151 35186 35189 28
28152 35186 35190 28
28153 35191 35192 28
28154 35191 35193 28
28155 35191 35194 28
28156 35191 35195 28
28157 35196 35197 28
28158 35196 35198 28
28159 35196 35199 28
28160 35196 35200 28
28161 35201 35202 28
28162 35201 35203 28
28163 35201 35204 28
28164 35201 35205 28
28165 35206 35207 28
28166 35206 35208 28
28167 35206 35209 28
28168 35206 35210 28
28169 35211 35212 28
28170 35211 35213 28
28171 35211 35214 28
28172 35211 35215 28
28173 35216 35217 28
28174 35216 35218 28
28175 35216 35219 28
28176 35216 35220 28
28177 35221 35222 28
28178 35221 35223 28
28179 35221 35224 28
28180 35221 35225 28
28181 35226 35227 28
28182 35226 35228 28
28183 35226 35229 28
28184 35226 35230 28
28185 35231 35232 28
28186 35231 35233 28
28187 35231 35234 28
28188 35231 35235 28
28189 35236 35237 28
28190 35236 35238 28
28191 35236 35239 28
28192 35236 35240 28
28193 35241 35242 28
28194 35241 35243 28
28195 35241 35244 28
28196 35241 35245 28
28197 35246 35247 28
28198 35246 35248 28
28199 35246 35249 28
28200 35246 35250 28
28201 35251 35252 28
28202 35251 35253 28
28203 35251 35254 28
28204 35251 35255 28
28205 35256 35257 28
28206 35256 35258 28
28207 35256 35259 28
28208 35256 35260 28
28209 35261 35262 28
28210 35261 35263 28
28211 35261 35264 28
28212 35261 35265 28
28213 35266 35267 28
28214 35266 35268 28
28215 35266 35269 28
28216 35266 35270 28
28217 35271 35272 28
28218 35271 35273 28
28219 35271 35274 28
28220 35271 35275 28
28221 35276 35277 28
28222 35276 35278 28
28223 35276 35279 28
28224 35276 35280 28
28225 35281 35282 28
28226 35281 35283 28
28227 35281 35284 28
28228 35281 35285 28
28229 35286 35287 28
28230 35286 35288 28
28231 35286 35289 28
28232 35286 35290 28
28233 35291 35292 28
28234 35291 35293 28
28235 35291 35294 28
28236 35291 35295 28
28237 35296 35297 28
28238 35296 35298 28
28239 35296 35299 28
28240 35296 35300 28
28241 35301 35302 28
28242 35301 35303 28
28243 35301 35304 28
28244 35301 35305 28
28245 35306 35307 28
28246 35306 35308 28
28247 35306 35309 28
28248 35306 35310 28
28249 35311 35312 28
28250 35311 35313 28
28251 35311 35314 28
28252 35311 35315 28
28253 35316 35317 28
28254 35316 35318 28
28255 35316 35319 28
28256 35316 35320 28
28257 35321 35322 28
28258 35321 35323 28
28259 35321 35324 28
28260 35321 35325 28
28261 35326 35327 28
28262 35326 35328 28
28263 35326 35329 28
28264 35326 35330 28
28265 35331 35332 28
28266 35331 35333 28
28267 35331 35334 28
28268 35331 35335 28
28269 35336 35337 28
28270 35336 35338 28
28271 35336 35339 28
28272 35336 35340 28
28273 35341 35342 28
28274 35341 35343 28
28275 35341 35344 28
28276 35341 35345 28
28277 35346 35347 28
28278 35346 35348 28
28279 35346 35349 28
28280 35346 35350 28
28281 35351 35352 28
28282 35351 35353 28
28283 35351 35354 28
28284 35351 35355 28
28285 35356 35357 28
28286 35356 35358 28
28287 35356 35359 28
28288 35356 35360 28
28289 35361 35362 28
28290 35361 35363 28
28291 35361 35364 28
28292 35361 35365 28
28293 35366 35367 28
28294 35366 35368 28
28295 35366 35369 28
28296 35366 35370 28
28297 35371 35372 28
28298 35371 35373 28
28299 35371 35374 28
28300 35371 35375 28
28301 35376 35377 28
28302 35376 35378 28
28303 35376 35379 28
28304 35376 35380 28
28305 35381 35382 28
28306 35381 35383 28
28307 35381 35384 28
28308 35381 35385 28
28309 35386 35387 28
28310 35386 35388 28
28311 35386 35389 28
28312 35386 35390 28
28313 35391 35392 28
28314 35391 35393 28
28315 35391 35394 28
28316 35391 35395 28
28317 35396 35397 28
28318 35396 35398 28
28319 35396 35399 28
28320 35396 35400 28
28321 35401 35402 28
28322 35401 35403 28
28323 35401 35404 28
28324 35401 35405 28
28325 35406 35407 28
28326 35406 35408 28
28327 35406 35409 28
28328 35406 35410 28
28329 35411 35412 28
28330 35411 35413 28
28331 35411 35414 28
28332 35411 35415 28
28333 35416 35417 28
28334 35416 35418 28
28335 35416 35419 28
28336 35416 35420 28
28337 35421 35422 28
28338 35421 35423 28
28339 35421 35424 28
28340 35421 35425 28
28341 35426 35427 28
28342 35426 35428 28
28343 35426 35429 28
28344 35426 35430 28
28345 35431 35432 28
28346 35431 35433 28
28347 35431 35434 28
28348 35431 35435 28
28349 35436 35437 28
28350 35436 35438 28
28351 35436 35439 28
28352 35436 35440 28
28353 35441 35442 28
28354 35441 35443 28
28355 35441 35444 28
28356 35441 35445 28
28357 35446 35447 28
28358 35446 35448 28
28359 35446 35449 28
28360 35446 35450 28
28361 35451 35452 28
28362 35451 35453 28
28363 35451 35454 28
28364 35451 35455 28
28365 35456 35457 28
28366 35456 35458 28
28367 35456 35459 28
28368 35456 35460 28
28369 35461 35462 28
28370 35461 35463 28
28371 35461 35464 28
28372 35461 35465 28
28373 35466 35467 28
28374 35466 35468 28
28375 35466 35469 28
28376 35466 35470 28
28377 35471 35472 28
28378 35471 35473 28
28379 35471 35474 28
28380 35471 35475 28
28381 35476 35477 28
28382 35476 35478 28
28383 35476 35479 28
28384 35476 35480 28
28385 35481 35482 28
28386 35481 35483 28
28387 35481 35484 28
28388 35481 35485 28
28389 35486 35487 28
28390 35486 35488 28
28391 35486 35489 28
28392 35486 35490 28
28393 35491 35492 28
28394 35491 35493 28
28395 35491 35494 28
28396 35491 35495 28
28397 35496 35497 28
28398 35496 35498 28
28399 35496 35499 28
28400 35496 35500 28
28401 35501 35502 28
28402 35501 35503 28
28403 35501 35504 28
28404 35501 35505 28
28405 35506 35507 28
28406 35506 35508 28
28407 35506 35509 28
28408 35506 35510 28
28409 35511 35512 28
28410 35511 35513 28
28411 35511 35514 28
28412 35511 35515 28
28413 35516 35517 28
28414 35516 35518 28
28415 35516 35519 28
28416 35516 35520 28
28417 35521 35522 28
28418 35521 35523 28
28419 35521 35524 28
28420 35521 35525 28
28421 35526 35527 28
28422 35526 35528 28
28423 35526 35529 28
28424 35526 35530 28
28425 35531 35532 28
28426 35531 35533 28
28427 35531 35534 28
28428 35531 35535 28
28429 35536 35537 28
28430 35536 35538 28
28431 35536 35539 28
28432 35536 35540 28
28433 35541 35542 28
28434 35541 35543 28
28435 35541 35544 28
28436 35541 35545 28
28437 35546 35547 28
28438 35546 35548 28
28439 35546 35549 28
28440 35546 35550 28
28441 35551 35552 28
28442 35551 35553 28
28443 35551 35554 28
28444 35551 35555 28
28445 35556 35557 28
28446 35556 35558 28
28447 35556 35559 28
28448 35556 35560 28
28449 35561 35562 28
28450 35561 35563 28
28451 35561 35564 28
28452 35561 35565 28
28453 35566 35567 28
28454 35566 35568 28
28455 35566 35569 28
28456 35566 35570 28
28457 35571 35572 28
28458 35571 35573 28
28459 35571 35574 28
28460 35571 35575 28
28461 35576 35577 28
28462 35576 35578 28
28463 35576 35579 28
28464 35576 35580 28
28465 35581 35582 28
28466 35581 35583 28
28467 35581 35584 28
28468 35581 35585 28
28469 35586 35587 28
28470 35586 35588 28
28471 35586 35589 28
28472 35586 35590 28
28473 35591 35592 28
28474 35591 35593 28
28475 35591 35594 28
28476 35591 35595 28
28477 35596 35597 28
28478 35596 35598 28
28479 35596 35599 28
28480 35596 35600 28
28481 35601 35602 28
28482 35601 35603 28
28483 35601 35604 28
28484 35601 35605 28
28485 35606 35607 28
28486 35606 35608 28
28487 35606 35609 28
28488 35606 35610 28
28489 35611 35612 28
28490 35611 35613 28
28491 35611 35614 28
28492 35611 35615 28
28493 35616 35617 28
28494 35616 35618 28
28495 35616 35619 28
28496 35616 35620 28
28497 35621 35622 28
28498 35621 35623 28
28499 35621 35624 28
28500 35621 35625 28
28501 35626 35627 28
28502 35626 35628 28
28503 35626 35629 28
28504 35626 35630 28
28505 35631 35632 28
28506 35631 35633 28
28507 35631 35634 28
28508 35631 35635 28
28509 35636 35637 28
28510 35636 35638 28
28511 35636 35639 28
28512 35636 35640 28
28513 35641 35642 28
28514 35641 35643 28
28515 35641 35644 28
28516 35641 35645 28
28517 35646 35647 28
28518 35646 35648 28
28519 35646 35649 28
28520 35646 35650 28
28521 35651 35652 28
28522 35651 35653 28
28523 35651 35654 28
28524 35651 35655 28
28525 35656 35657 28
28526 35656 35658 28
28527 35656 35659 28
28528 35656 35660 28
28529 35661 35662 28
28530 35661 35663 28
28531 35661 35664 28
28532 35661 35665 28
28533 35666 35667 28
28534 35666 35668 28
28535 35666 35669 28
28536 35666 35670 28
28537 35671 35672 28
28538 35671 35673 28
28539 35671 35674 28
28540 35671 35675 28
28541 35676 35677 28
28542 35676 35678 28
28543 35676 35679 28
28544 35676 35680 28
28545 35681 35682 28
28546 35681 35683 28
28547 35681 35684 28
28548 35681 35685 28
28549 35686 35687 28
28550 35686 35688 28
28551 35686 35689 28
28552 35686 35690 28
28553 35691 35692 28
28554 35691 35693 28
28555 35691 35694 28
28556 35691 35695 28
28557 35696 35697 28
28558 35696 35698 28
28559 35696 35699 28
28560 35696 35700 28
28561 35701 35702 28
28562 35701 35703 28
28563 35701 35704 28
28564 35701 35705 28
28565 35706 35707 28
28566 35706 35708 28
28567 35706 35709 28
28568 35706 35710 28
28569 35711 35712 28
28570 35711 35713 28
28571 35711 35714 28
28572 35711 35715 28
28573 35716 35717 28
28574 35716 35718 28
28575 35716 35719 28
28576 35716 35720 28
28577 35721 35722 28
28578 35721 35723 28
28579 35721 35724 28
28580 35721 35725 28
28581 35726 35727 28
28582 35726 35728 28
28583 35726 35729 28
28584 35726 35730 28
28585 35731 35732 28
28586 35731 35733 28
28587 35731 35734 28
28588 35731 35735 28
28589 35736 35737 28
28590 35736 35738 28
28591 35736 35739 28
28592 35736 35740 28
28593 35741 35742 28
28594 35741 35743 28
28595 35741 35744 28
28596 35741 35745 28
28597 35746 35747 28
28598 35746 35748 28
28599 35746 35749 28
28600 35746 35750 28
28601 35751 35752 28
28602 35751 35753 28
28603 35751 35754 28
28604 35751 35755 28
28605 35756 35757 28
28606 35756 35758 28
28607 35756 35759 28
28608 35756 35760 28
28609 35761 35762 28
28610 35761 35763 28
28611 35761 35764 28
28612 35761 35765 28
28613 35766 35767 28
28614 35766 35768 28
28615 35766 35769 28
28616 35766 35770 28
28617 35771 35772 28
28618 35771 35773 28
28619 35771 35774 28
28620 35771 35775 28
28621 35776 35777 28
28622 35776 35778 28
28623 35776 35779 28
28624 35776 35780 28
28625 35781 35782 28
28626 35781 35783 28
28627 35781 35784 28
28628 35781 35785 28
28629 35786 35787 28
28630 35786 35788 28
28631 35786 35789 28
28632 35786 35790 28
28633 35791 35792 28
28634 35791 35793 28
28635 35791 35794 28
28636 35791 35795 28
28637 35796 35797 28
28638 35796 35798 28
28639 35796 35799 28
28640 35796 35800 28
28641 35801 35802 28
28642 35801 35803 28
28643 35801 35804 28
28644 35801 35805 28
28645 35806 35807 28
28646 35806 35808 28
28647 35806 35809 28
28648 35806 35810 28
28649 35811 35812 28
28650 35811 35813 28
28651 35811 35814 28
28652 35811 35815 28
28653 35816 35817 28
28654 35816 35818 28
28655 35816 35819 28
28656 35816 35820 28
28657 35821 35822 28
28658 35821 35823 28
28659 35821 35824 28
28660 35821 35825 28
28661 35826 35827 28
28662 35826 35828 28
28663 35826 35829 28
28664 35826 35830 28
28665 35831 35832 28
28666 35831 35833 28
28667 35831 35834 28
28668 35831 35835 28
28669 35836 35837 28
28670 35836 35838 28
28671 35836 35839 28
28672 35836 35840 28
28673 35841 35842 28
28674 35841 35843 28
28675 35841 35844 28
28676 35841 35845 28
28677 35846 35847 28
28678 35846 35848 28
28679 35846 35849 28
28680 35846 35850 28
28681 35851 35852 28
28682 35851 35853 28
28683 35851 35854 28
28684 35851 35855 28
28685 35856 35857 28
28686 35856 35858 28
28687 35856 35859 28
28688 35856 35860 28
28689 35861 35862 28
28690 35861 35863 28
28691 35861 35864 28
28692 35861 35865 28
28693 35866 35867 28
28694 35866 35868 28
28695 35866 35869 28
28696 35866 35870 28
28697 35871 35872 28
28698 35871 35873 28
28699 35871 35874 28
28700 35871 35875 28
28701 35876 35877 28
28702 35876 35878 28
28703 35876 35879 28
28704 35876 35880 28
28705 35881 35882 28
28706 35881 35883 28
28707 35881 35884 28
28708 35881 35885 28
28709 35886 35887 28
28710 35886 35888 28
28711 35886 35889 28
28712 35886 35890 28
28713 35891 35892 28
28714 35891 35893 28
28715 35891 35894 28
28716 35891 35895 28
28717 35896 35897 28
28718 35896 35898 28
28719 35896 35899 28
28720 35896 35900 28
28721 35901 35902 28
28722 35901 35903 28
28723 35901 35904 28
28724 35901 35905 28
28725 35906 35907 28
28726 35906 35908 28
28727 35906 35909 28
28728 35906 35910 28
28729 35911 35912 28
28730 35911 35913 28
28731 35911 35914 28
28732 35911 35915 28
28733 35916 35917 28
28734 35916 35918 28
28735 35916 35919 28
28736 35916 35920 28
28737 35921 35922 28
28738 35921 35923 28
28739 35921 35924 28
28740 35921 35925 28
28741 35926 35927 28
28742 35926 35928 28
28743 35926 35929 28
28744 35926 35930 28
28745 35931 35932 28
28746 35931 35933 28
28747 35931 35934 28
28748 35931 35935 28
28749 35936 35937 28
28750 35936 35938 28
28751 35936 35939 28
28752 35936 35940 28
28753 35941 35942 28
28754 35941 35943 28
28755 35941 35944 28
28756 35941 35945 28
28757 35946 35947 28
28758 35946 35948 28
28759 35946 35949 28
28760 35946 35950 28
28761 35951 35952 28
28762 35951 35953 28
28763 35951 35954 28
28764 35951 35955 28
28765 35956 35957 28
28766 35956 35958 28
28767 35956 35959 28
28768 35956 35960 28
28769 35961 35962 28
28770 35961 35963 28
28771 35961 35964 28
28772 35961 35965 28
28773 35966 35967 28
28774 35966 35968 28
28775 35966 35969 28
28776 35966 35970 28
28777 35971 35972 28
28778 35971 35973 28
28779 35971 35974 28
28780 35971 35975 28
28781 35976 35977 28
28782 35976 35978 28
28783 35976 35979 28
28784 35976 35980 28
28785 35981 35982 28
28786 35981 35983 28
28787 35981 35984 28
28788 35981 35985 28
28789 35986 35987 28
28790 35986 35988 28
28791 35986 35989 28
28792 35986 35990 28
28793 35991 35992 28
28794 35991 35993 28
28795 35991 35994 28
28796 35991 35995 28
28797 35996 35997 28
28798 35996 35998 28
28799 35996 35999 28
28800 35996 36000 28
28801 36001 36002 28
28802 36001 36003 28
28803 36001 36004 28
28804 36001 36005 28
28805 36006 36007 28
28806 36006 36008 28
28807 36006 36009 28
28808 36006 36010 28
28809 36011 36012 28
28810 36011 36013 28
28811 36011 36014 28
28812 36011 36015 28
28813 36016 36017 28
28814 36016 36018 28
28815 36016 36019 28
28816 36016 36020 28
28817 36021 36022 28
28818 36021 36023 28
28819 36021 36024 28
28820 36021 36025 28
28821 36026 36027 28
28822 36026 36028 28
28823 36026 36029 28
28824 36026 36030 28
28825 36031 36032 28
28826 36031 36033 28
28827 36031 36034 28
28828 36031 36035 28
28829 36036 36037 28
28830 36036 36038 28
28831 36036 36039 28
28832 36036 36040 28
28833 36041 36042 28
28834 36041 36043 28
28835 36041 36044 28
28836 36041 36045 28
28837 36046 36047 28
28838 36046 36048 28
28839 36046 36049 28
28840 36046 36050 28
28841 36051 36052 28
28842 36051 36053 28
28843 36051 36054 28
28844 36051 36055 28
28845 36056 36057 28
28846 36056 36058 28
28847 36056 36059 28
28848 36056 36060 28
28849 36061 36062 28
28850 36061 36063 28
28851 36061 36064 28
28852 36061 36065 28
28853 36066 36067 28
28854 36066 36068 28
28855 36066 36069 28
28856 36066 36070 28
28857 36071 36072 28
28858 36071 36073 28
28859 36071 36074 28
28860 36071 36075 28
28861 36076 36077 28
28862 36076 36078 28
28863 36076 36079 28
28864 36076 36080 28
28865 36081 36082 28
28866 36081 36083 28
28867 36081 36084 28
28868 36081 36085 28
28869 36086 36087 28
28870 36086 36088 28
28871 36086 36089 28
28872 36086 36090 28
28873 36091 36092 28
28874 36091 36093 28
28875 36091 36094 28
28876 36091 36095 28
28877 36096 36097 28
28878 36096 36098 28
28879 36096 36099 28
28880 36096 36100 28
28881 36101 36102 28
28882 36101 36103 28
28883 36101 36104 28
28884 36101 36105 28
28885 36106 36107 28
28886 36106 36108 28
28887 36106 36109 28
28888 36106 36110 28
28889 36111 36112 28
28890 36111 36113 28
28891 36111 36114 28
28892 36111 36115 28
28893 36116 36117 28
28894 36116 36118 28
28895 36116 36119 28
28896 36116 36120 28
28897 36121 36122 28
28898 36121 36123 28
28899 36121 36124 28
28900 36121 36125 28
28901 36126 36127 28
28902 36126 36128 28
28903 36126 36129 28
28904 36126 36130 28
28905 36131 36132 28
28906 36131 36133 28
28907 36131 36134 28
28908 36131 36135 28
28909 36136 36137 28
28910 36136 36138 28
28911 36136 36139 28
28912 36136 36140 28
28913 36141 36142 28
28914 36141 36143 28
28915 36141 36144 28
28916 36141 36145 28
28917 36146 36147 28
28918 36146 36148 28
28919 36146 36149 28
28920 36146 36150 28
28921 36151 36152 28
28922 36151 36153 28
28923 36151 36154 28
28924 36151 36155 28
28925 36156 36157 28
28926 36156 36158 28
28927 36156 36159 28
28928 36156 36160 28
28929 36161 36162 28
28930 36161 36163 28
28931 36161 36164 28
28932 36161 36165 28
28933 36166 36167 28
28934 36166 36168 28
28935 36166 36169 28
28936 36166 36170 28
28937 36171 36172 28
28938 36171 36173 28
28939 36171 36174 28
28940 36171 36175 28
28941 36176 36177 28
28942 36176 36178 28
28943 36176 36179 28
28944 36176 36180 28
28945 36181 36182 28
28946 36181 36183 28
28947 36181 36184 28
28948 36181 36185 28
28949 36186 36187 28
28950 36186 36188 28
28951 36186 36189 28
28952 36186 36190 28
28953 36191 36192 28
28954 36191 36193 28
28955 36191 36194 28
28956 36191 36195 28
28957 36196 36197 28
28958 36196 36198 28
28959 36196 36199 28
28960 36196 36200 28
28961 36201 36202 28
28962 36201 36203 28
28963 36201 36204 28
28964 36201 36205 28
28965 36206 36207 28
28966 36206 36208 28
28967 36206 36209 28
28968 36206 36210 28
28969 36211 36212 28
28970 36211 36213 28
28971 36211 36214 28
28972 36211 36215 28
28973 36216 36217 28
28974 36216 36218 28
28975 36216 36219 28
28976 36216 36220 28
28977 36221 36222 28
28978 36221 36223 28
28979 36221 36224 28
28980 36221 36225 28
28981 36226 36227 28
28982 36226 36228 28
28983 36226 36229 28
28984 36226 36230 28
28985 36231 36232 28
28986 36231 36233 28
28987 36231 36234 28
28988 36231 36235 28
28989 36236 36237 28
28990 36236 36238 28
28991 36236 36239 28
28992 36236 36240 28
28993 36241 36242 28
28994 36241 36243 28
28995 36241 36244 28
28996 36241 36245 28
28997 36246 36247 28
28998 36246 36248 28
28999 36246 36249 28
29000 36246 36250 28
29001 36251 36252 28
29002 36251 36253 28
29003 36251 36254 28
29004 36251 36255 28
29005 36256 36257 28
29006 36256 36258 28
29007 36256 36259 28
29008 36256 36260 28
29009 36261 36262 28
29010 36261 36263 28
29011 36261 36264 28
29012 36261 36265 28
29013 36266 36267 28
29014 36266 36268 28
29015 36266 36269 28
29016 36266 36270 28
29017 36271 36272 28
29018 36271 36273 28
29019 36271 36274 28
29020 36271 36275 28
29021 36276 36277 28
29022 36276 36278 28
29023 36276 36279 28
29024 36276 36280 28
29025 36281 36282 28
29026 36281 36283 28
29027 36281 36284 28
29028 36281 36285 28
29029 36286 36287 28
29030 36286 36288 28
29031 36286 36289 28
29032 36286 36290 28
29033 36291 36292 28
29034 36291 36293 28
29035 36291 36294 28
29036 36291 36295 28
29037 36296 36297 28
29038 36296 36298 28
29039 36296 36299 28
29040 36296 36300 28
29041 36301 36302 28
29042 36301 36303 28
29043 36301 36304 28
29044 36301 36305 28
29045 36306 36307 28
29046 36306 36308 28
29047 36306 36309 28
29048 36306 36310 28
29049 36311 36312 28
29050 36311 36313 28
29051 36311 36314 28
29052 36311 36315 28
29053 36316 36317 28
29054 36316 36318 28
29055 36316 36319 28
29056 36316 36320 28
29057 36321 36322 28
29058 36321 36323 28
29059 36321 36324 28
29060 36321 36325 28
29061 36326 36327 28
29062 36326 36328 28
29063 36326 36329 28
29064 36326 36330 28
29065 36331 36332 28
29066 36331 36333 28
29067 36331 36334 28
29068 36331 36335 28
29069 36336 36337 28
29070 36336 36338 28
29071 36336 36339 28
29072 36336 36340 28
29073 36341 36342 28
29074 36341 36343 28
29075 36341 36344 28
29076 36341 36345 28
29077 36346 36347 28
29078 36346 36348 28
29079 36346 36349 28
29080 36346 36350 28
29081 36351 36352 28
29082 36351 36353 28
29083 36351 36354 28
29084 36351 36355 28
29085 36356 36357 28
29086 36356 36358 28
29087 36356 36359 28
29088 36356 36360 28
29089 36361 36362 28
29090 36361 36363 28
29091 36361 36364 28
29092 36361 36365 28
29093 36366 36367 28
29094 36366 36368 28
29095 36366 36369 28
29096 36366 36370 28
29097 36371 36372 28
29098 36371 36373 28
29099 36371 36374 28
29100 36371 36375 28
29101 36376 36377 28
29102 36376 36378 28
29103 36376 36379 28
29104 36376 36380 28
29105 36381 36382 28
29106 36381 36383 28
29107 36381 36384 28
29108 36381 36385 28
29109 36386 36387 28
29110 36386 36388 28
29111 36386 36389 28
29112 36386 36390 28
29113 36391 36392 28
29114 36391 36393 28
29115 36391 36394 28
29116 36391 36395 28
29117 36396 36397 28
29118 36396 36398 28
29119 36396 36399 28
29120 36396 36400 28
29121 36401 36402 28
29122 36401 36403 28
29123 36401 36404 28
29124 36401 36405 28
29125 36406 36407 28
29126 36406 36408 28
29127 36406 36409 28
29128 36406 36410 28
29129 36411 36412 28
29130 36411 36413 28
29131 36411 36414 28
29132 36411 36415 28
29133 36416 36417 28
29134 36416 36418 28
29135 36416 36419 28
29136 36416 36420 28
29137 36421 36422 28
29138 36421 36423 28
29139 36421 36424 28
29140 36421 36425 28
29141 36426 36427 28
29142 36426 36428 28
29143 36426 36429 28
29144 36426 36430 28
29145 36431 36432 28
29146 36431 36433 28
29147 36431 36434 28
29148 36431 36435 28
29149 36436 36437 28
29150 36436 36438 28
29151 36436 36439 28
29152 36436 36440 28
29153 36441 36442 28
29154 36441 36443 28
29155 36441 36444 28
29156 36441 36445 28
29157 36446 36447 28
29158 36446 36448 28
29159 36446 36449 28
29160 36446 36450 28
29161 36451 36452 28
29162 36451 36453 28
29163 36451 36454 28
29164 36451 36455 28
29165 36456 36457 28
29166 36456 36458 28
29167 36456 36459 28
29168 36456 36460 28
29169 36461 36462 28
29170 36461 36463 28
29171 36461 36464 28
29172 36461 36465 28
29173 36466 36467 28
29174 36466 36468 28
29175 36466 36469 28
29176 36466 36470 28
29177 36471 36472 28
29178 36471 36473 28
29179 36471 36474 28
29180 36471 36475 28
29181 36476 36477 28
29182 36476 36478 28
29183 36476 36479 28
29184 36476 36480 28
29185 36481 36482 28
29186 36481 36483 28
29187 36481 36484 28
29188 36481 36485 28
29189 36486 36487 28
29190 36486 36488 28
29191 36486 36489 28
29192 36486 36490 28
29193 36491 36492 28
29194 36491 36493 28
29195 36491 36494 28
29196 36491 36495 28
29197 36496 36497 28
29198 36496 36498 28
29199 36496 36499 28
29200 36496 36500 28
29201 36501 36502 28
29202 36501 36503 28
29203 36501 36504 28
29204 36501 36505 28
29205 36506 36507 28
29206 36506 36508 28
29207 36506 36509 28
29208 36506 36510 28
29209 36511 36512 28
29210 36511 36513 28
29211 36511 36514 28
29212 36511 36515 28
29213 36516 36517 28
29214 36516 36518 28
29215 36516 36519 28
29216 36516 36520 28
29217 36521 36522 28
29218 36521 36523 28
29219 36521 36524 28
29220 36521 36525 28
29221 36526 36527 28
29222 36526 36528 28
29223 36526 36529 28
29224 36526 36530 28
29225 36531 36532 28
29226 36531 36533 28
29227 36531 36534 28
29228 36531 36535 28
29229 36536 36537 28
29230 36536 36538 28
29231 36536 36539 28
29232 36536 36540 28
29233 36541 36542 28
29234 36541 36543 28
29235 36541 36544 28
29236 36541 36545 28
29237 36546 36547 28
29238 36546 36548 28
29239 36546 36549 28
29240 36546 36550 28
29241 36551 36552 28
29242 36551 36553 28
29243 36551 36554 28
29244 36551 36555 28
29245 36556 36557 28
29246 36556 36558 28
29247 36556 36559 28
29248 36556 36560 28
29249 36561 36562 28
29250 36561 36563 28
29251 36561 36564 28
29252 36561 36565 28
29253 36566 36567 28
29254 36566 36568 28
29255 36566 36569 28
29256 36566 36570 28
29257 36571 36572 28
29258 36571 36573 28
29259 36571 36574 28
29260 36571 36575 28
29261 36576 36577 28
29262 36576 36578 28
29263 36576 36579 28
29264 36576 36580 28
29265 36581 36582 28
29266 36581 36583 28
29267 36581 36584 28
29268 36581 36585 28
29269 36586 36587 28
29270 36586 36588 28
29271 36586 36589 28
29272 36586 36590 28
29273 36591 36592 28
29274 36591 36593 28
29275 36591 36594 28
29276 36591 36595 28
29277 36596 36597 28
29278 36596 36598 28
29279 36596 36599 28
29280 36596 36600 28
29281 36601 36602 28
29282 36601 36603 28
29283 36601 36604 28
29284 36601 36605 28
29285 36606 36607 28
29286 36606 36608 28
29287 36606 36609 28
29288 36606 36610 28
29289 36611 36612 28
29290 36611 36613 28
29291 36611 36614 28
29292 36611 36615 28
29293 36616 36617 28
29294 36616 36618 28
29295 36616 36619 28
29296 36616 36620 28
29297 36621 36622 28
29298 36621 36623 28
29299 36621 36624 28
29300 36621 36625 28
29301 36626 36627 28
29302 36626 36628 28
29303 36626 36629 28
29304 36626 36630 28
29305 36631 36632 28
29306 36631 36633 28
29307 36631 36634 28
29308 36631 36635 28
29309 36636 36637 28
29310 36636 36638 28
29311 36636 36639 28
29312 36636 36640 28
29313 36641 36642 28
29314 36641 36643 28
29315 36641 36644 28
29316 36641 36645 28
29317 36646 36647 28
29318 36646 36648 28
29319 36646 36649 28
29320 36646 36650 28
29321 36651 36652 28
29322 36651 36653 28
29323 36651 36654 28
29324 36651 36655 28
29325 36656 36657 28
29326 36656 36658 28
29327 36656 36659 28
29328 36656 36660 28
29329 36661 36662 28
29330 36661 36663 28
29331 36661 36664 28
29332 36661 36665 28
29333 36666 36667 28
29334 36666 36668 28
29335 36666 36669 28
29336 36666 36670 28
29337 36671 36672 28
29338 36671 36673 28
29339 36671 36674 28
29340 36671 36675 28
29341 36676 36677 28
29342 36676 36678 28
29343 36676 36679 28
29344 36676 36680 28
29345 36681 36682 28
29346 36681 36683 28
29347 36681 36684 28
29348 36681 36685 28
29349 36686 36687 28
29350 36686 36688 28
29351 36686 36689 28
29352 36686 36690 28
29353 36691 36692 28
29354 36691 36693 28
29355 36691 36694 28
29356 36691 36695 28
29357 36696 36697 28
29358 36696 36698 28
29359 36696 36699 28
29360 36696 36700 28
29361 36701 36702 28
29362 36701 36703 28
29363 36701 36704 28
29364 36701 36705 28
29365 36706 36707 28
29366 36706 36708 28
29367 36706 36709 28
29368 36706 36710 28
29369 36711 36712 28
29370 36711 36713 28
29371 36711 36714 28
29372 36711 36715 28
29373 36716 36717 28
29374 36716 36718 28
29375 36716 36719 28
29376 36716 36720 28
29377 36721 36722 28
29378 36721 36723 28
29379 36721 36724 28
29380 36721 36725 28
29381 36726 36727 28
29382 36726 36728 28
29383 36726 36729 28
29384 36726 36730 28
29385 36731 36732 28
29386 36731 36733 28
29387 36731 36734 28
29388 36731 36735 28
29389 36736 36737 28
29390 36736 36738 28
29391 36736 36739 28
29392 36736 36740 28
29393 36741 36742 28
29394 36741 36743 28
29395 36741 36744 28
29396 36741 36745 28
29397 36746 36747 28
29398 36746 36748 28
29399 36746 36749 28
29400 36746 36750 28
29401 36751 36752 28
29402 36751 36753 28
29403 36751 36754 28
29404 36751 36755 28
29405 36756 36757 28
29406 36756 36758 28
29407 36756 36759 28
29408 36756 36760 28
29409 36761 36762 28
29410 36761 36763 28
29411 36761 36764 28
29412 36761 36765 28
29413 36766 36767 28
29414 36766 36768 28
29415 36766 36769 28
29416 36766 36770 28
29417 36771 36772 28
29418 36771 36773 28
29419 36771 36774 28
29420 36771 36775 28
29421 36776 36777 28
29422 36776 36778 28
29423 36776 36779 28
29424 36776 36780 28
29425 36781 36782 28
29426 36781 36783 28
29427 36781 36784 28
29428 36781 36785 28
29429 36786 36787 28
29430 36786 36788 28
29431 36786 36789 28
29432 36786 36790 28
29433 36791 36792 28
29434 36791 36793 28
29435 36791 36794 28
29436 36791 36795 28
29437 36796 36797 28
29438 36796 36798 28
29439 36796 36799 28
29440 36796 36800 28
29441 36801 36802 28
29442 36801 36803 28
29443 36801 36804 28
29444 36801 36805 28
29445 36806 36807 28
29446 36806 36808 28
29447 36806 36809 28
29448 36806 36810 28
29449 36811 36812 28
29450 36811 36813 28
29451 36811 36814 28
29452 36811 36815 28
29453 36816 36817 28
29454 36816 36818 28
29455 36816 36819 28
29456 36816 36820 28
29457 36821 36822 28
29458 36821 36823 28
29459 36821 36824 28
29460 36821 36825 28
29461 36826 36827 28
29462 36826 36828 28
29463 36826 36829 28
29464 36826 36830 28
29465 36831 36832 28
29466 36831 36833 28
29467 36831 36834 28
29468 36831 36835 28
29469 36836 36837 28
29470 36836 36838 28
29471 36836 36839 28
29472 36836 36840 28
29473 36841 36842 28
29474 36841 36843 28
29475 36841 36844 28
29476 36841 36845 28
29477 36846 36847 28
29478 36846 36848 28
29479 36846 36849 28
29480 36846 36850 28
29481 36851 36852 28
29482 36851 36853 28
29483 36851 36854 28
29484 36851 36855 28
29485 36856 36857 28
29486 36856 36858 28
29487 36856 36859 28
29488 36856 36860 28
29489 36861 36862 28
29490 36861 36863 28
29491 36861 36864 28
29492 36861 36865 28
29493 36866 36867 28
29494 36866 36868 28
29495 36866 36869 28
29496 36866 36870 28
29497 36871 36872 28
29498 36871 36873 28
29499 36871 36874 28
29500 36871 36875 28
29501 36876 36877 28
29502 36876 36878 28
29503 36876 36879 28
29504 36876 36880 28
29505 36881 36882 28
29506 36881 36883 28
29507 36881 36884 28
29508 36881 36885 28
29509 36886 36887 28
29510 36886 36888 28
29511 36886 36889 28
29512 36886 36890 28
29513 36891 36892 28
29514 36891 36893 28
29515 36891 36894 28
29516 36891 36895 28
29517 36896 36897 28
29518 36896 36898 28
29519 36896 36899 28
29520 36896 36900 28
29521 36901 36902 28
29522 36901 36903 28
29523 36901 36904 28
29524 36901 36905 28
29525 36906 36907 28
29526 36906 36908 28
29527 36906 36909 28
29528 36906 36910 28
29529 36911 36912 28
29530 36911 36913 28
29531 36911 36914 28
29532 36911 36915 28
29533 36916 36917 28
29534 36916 36918 28
29535 36916 36919 28
29536 36916 36920 28
29537 36921 36922 28
29538 36921 36923 28
29539 36921 36924 28
29540 36921 36925 28
29541 36926 36927 28
29542 36926 36928 28
29543 36926 36929 28
29544 36926 36930 28
29545 36931 36932 28
29546 36931 36933 28
29547 36931 36934 28
29548 36931 36935 28
29549 36936 36937 28
29550 36936 36938 28
29551 36936 36939 28
29552 36936 36940 28
29553 36941 36942 28
29554 36941 36943 28
29555 36941 36944 28
29556 36941 36945 28
29557 36946 36947 28
29558 36946 36948 28
29559 36946 36949 28
29560 36946 36950 28
29561 36951 36952 28
29562 36951 36953 28
29563 36951 36954 28
29564 36951 36955 28
29565 36956 36957 28
29566 36956 36958 28
29567 36956 36959 28
29568 36956 36960 28
29569 36961 36962 28
29570 36961 36963 28
29571 36961 36964 28
29572 36961 36965 28
29573 36966 36967 28
29574 36966 36968 28
29575 36966 36969 28
29576 36966 36970 28
29577 36971 36972 28
29578 36971 36973 28
29579 36971 36974 28
29580 36971 36975 28
29581 36976 36977 28
29582 36976 36978 28
29583 36976 36979 28
29584 36976 36980 28
29585 36981 36982 28
29586 36981 36983 28
29587 36981 36984 28
29588 36981 36985 28
29589 36986 36987 28
29590 36986 36988 28
29591 36986 36989 28
29592 36986 36990 28
29593 36991 36992 28
29594 36991 36993 28
29595 36991 36994 28
29596 36991 36995 28
29597 36996 36997 28
29598 36996 36998 28
29599 36996 36999 28
29600 36996 37000 28
29601 37001 37002 28
29602 37001 37003 28
29603 37001 37004 28
29604 37001 37005 28
29605 37006 37007 28
29606 37006 37008 28
29607 37006 37009 28
29608 37006 37010 28
29609 37011 37012 28
29610 37011 37013 28
29611 37011 37014 28
29612 37011 37015 28
29613 37016 37017 28
29614 37016 37018 28
29615 37016 37019 28
29616 37016 37020 28
29617 37021 37022 28
29618 37021 37023 28
29619 37021 37024 28
29620 37021 37025 28
29621 37026 37027 28
29622 37026 37028 28
29623 37026 37029 28
29624 37026 37030 28
29625 37031 37032 28
29626 37031 37033 28
29627 37031 37034 28
29628 37031 37035 28
29629 37036 37037 28
29630 37036 37038 28
29631 37036 37039 28
29632 37036 37040 28
29633 37041 37042 28
29634 37041 37043 28
29635 37041 37044 28
29636 37041 37045 28
29637 37046 37047 28
29638 37046 37048 28
29639 37046 37049 28
29640 37046 37050 28
29641 37051 37052 28
29642 37051 37053 28
29643 37051 37054 28
29644 37051 37055 28
29645 37056 37057 28
29646 37056 37058 28
29647 37056 37059 28
29648 37056 37060 28
29649 37061 37062 28
29650 37061 37063 28
29651 37061 37064 28
29652 37061 37065 28
29653 37066 37067 28
29654 37066 37068 28
29655 37066 37069 28
29656 37066 37070 28
29657 37071 37072 28
29658 37071 37073 28
29659 37071 37074 28
29660 37071 37075 28
29661 37076 37077 28
29662 37076 37078 28
29663 37076 37079 28
29664 37076 37080 28
29665 37081 37082 28
29666 37081 37083 28
29667 37081 37084 28
29668 37081 37085 28
29669 37086 37087 28
29670 37086 37088 28
29671 37086 37089 28
29672 37086 37090 28
29673 37091 37092 28
29674 37091 37093 28
29675 37091 37094 28
29676 37091 37095 28
29677 37096 37097 28
29678 37096 37098 28
29679 37096 37099 28
29680 37096 37100 28
29681 37101 37102 28
29682 37101 37103 28
29683 37101 37104 28
29684 37101 37105 28
29685 37106 37107 28
29686 37106 37108 28
29687 37106 37109 28
29688 37106 37110 28
29689 37111 37112 28
29690 37111 37113 28
29691 37111 37114 28
29692 37111 37115 28
29693 37116 37117 28
29694 37116 37118 28
29695 37116 37119 28
29696 37116 37120 28
29697 37121 37122 28
29698 37121 37123 28
29699 37121 37124 28
29700 37121 37125 28
29701 37126 37127 28
29702 37126 37128 28
29703 37126 37129 28
29704 37126 37130 28
29705 37131 37132 28
29706 37131 37133 28
29707 37131 37134 28
29708 37131 37135 28
29709 37136 37137 28
29710 37136 37138 28
29711 37136 37139 28
29712 37136 37140 28
29713 37141 37142 28
29714 37141 37143 28
29715 37141 37144 28
29716 37141 37145 28
29717 37146 37147 28
29718 37146 37148 28
29719 37146 37149 28
29720 37146 37150 28
29721 37151 37152 28
29722 37151 37153 28
29723 37151 37154 28
29724 37151 37155 28
29725 37156 37157 28
29726 37156 37158 28
29727 37156 37159 28
29728 37156 37160 28
29729 37161 37162 28
29730 37161 37163 28
29731 37161 37164 28
29732 37161 37165 28
29733 37166 37167 28
29734 37166 37168 28
29735 37166 37169 28
29736 37166 37170 28
29737 37171 37172 28
29738 37171 37173 28
29739 37171 37174 28
29740 37171 37175 28
29741 37176 37177 28
29742 37176 37178 28
29743 37176 37179 28
29744 37176 37180 28
29745 37181 37182 28
29746 37181 37183 28
29747 37181 37184 28
29748 37181 37185 28
29749 37186 37187 28
29750 37186 37188 28
29751 37186 37189 28
29752 37186 37190 28
29753 37191 37192 28
29754 37191 37193 28
29755 37191 37194 28
29756 37191 37195 28
29757 37196 37197 28
29758 37196 37198 28
29759 37196 37199 28
29760 37196 37200 28
29761 37201 37202 28
29762 37201 37203 28
29763 37201 37204 28
29764 37201 37205 28
29765 37206 37207 28
29766 37206 37208 28
29767 37206 37209 28
29768 37206 37210 28
29769 37211 37212 28
29770 37211 37213 28
29771 37211 37214 28
29772 37211 37215 28
29773 37216 37217 28
29774 37216 37218 28
29775 37216 37219 28
29776 37216 37220 28
29777 37221 37222 28
29778 37221 37223 28
29779 37221 37224 28
29780 37221 37225 28
29781 37226 37227 28
29782 37226 37228 28
29783 37226 37229 28
29784 37226 37230 28
29785 37231 37232 28
29786 37231 37233 28
29787 37231 37234 28
29788 37231 37235 28
29789 37236 37237 28
29790 37236 37238 28
29791 37236 37239 28
29792 37236 37240 28
29793 37241 37242 28
29794 37241 37243 28
29795 37241 37244 28
29796 37241 37245 28
29797 37246 37247 28
29798 37246 37248 28
29799 37246 37249 28
29800 37246 37250 28
29801 37251 37252 28
29802 37251 37253 28
29803 37251 37254 28
29804 37251 37255 28
29805 37256 37257 28
29806 37256 37258 28
29807 37256 37259 28
29808 37256 37260 28
29809 37261 37262 28
29810 37261 37263 28
29811 37261 37264 28
29812 37261 37265 28
29813 37266 37267 28
29814 37266 37268 28
29815 37266 37269 28
29816 37266 37270 28
29817 37271 37272 28
29818 37271 37273 28
29819 37271 37274 28
29820 37271 37275 28
29821 37276 37277 28
29822 37276 37278 28
29823 37276 37279 28
29824 37276 37280 28
29825 37281 37282 28
29826 37281 37283 28
29827 37281 37284 28
29828 37281 37285 28
29829 37286 37287 28
29830 37286 37288 28
29831 37286 37289 28
29832 37286 37290 28
29833 37291 37292 28
29834 37291 37293 28
29835 37291 37294 28
29836 37291 37295 28
29837 37296 37297 28
29838 37296 37298 28
29839 37296 37299 28
29840 37296 37300 28
29841 37301 37302 28
29842 37301 37303 28
29843 37301 37304 28
29844 37301 37305 28
29845 37306 37307 28
29846 37306 37308 28
29847 37306 37309 28
29848 37306 37310 28
29849 37311 37312 28
29850 37311 37313 28
29851 37311 37314 28
29852 37311 37315 28
29853 37316 37317 28
29854 37316 37318 28
29855 37316 37319 28
29856 37316 37320 28
29857 37321 37322 28
29858 37321 37323 28
29859 37321 37324 28
29860 37321 37325 28
29861 37326 37327 28
29862 37326 37328 28
29863 37326 37329 28
29864 37326 37330 28
29865 37331 37332 28
29866 37331 37333 28
29867 37331 37334 28
29868 37331 37335 28
29869 37336 37337 28
29870 37336 37338 28
29871 37336 37339 28
29872 37336 37340 28
29873 37341 37342 28
29874 37341 37343 28
29875 37341 37344 28
29876 37341 37345 28
29877 37346 37347 28
29878 37346 37348 28
29879 37346 37349 28
29880 37346 37350 28
29881 37351 37352 28
29882 37351 37353 28
29883 37351 37354 28
29884 37351 37355 28
29885 37356 37357 28
29886 37356 37358 28
29887 37356 37359 28
29888 37356 37360 28
29889 37361 37362 28
29890 37361 37363 28
29891 37361 37364 28
29892 37361 37365 28
29893 37366 37367 28
29894 37366 37368 28
29895 37366 37369 28
29896 37366 37370 28
29897 37371 37372 28
29898 37371 37373 28
29899 37371 37374 28
29900 37371 37375 28
29901 37376 37377 28
29902 37376 37378 28
29903 37376 37379 28
29904 37376 37380 28
29905 37381 37382 28
29906 37381 37383 28
29907 37381 37384 28
29908 37381 37385 28
29909 37386 37387 28
29910 37386 37388 28
29911 37386 37389 28
29912 37386 37390 28
29913 37391 37392 28
29914 37391 37393 28
29915 37391 37394 28
29916 37391 37395 28
29917 37396 37397 28
29918 37396 37398 28
29919 37396 37399 28
29920 37396 37400 28
29921 37401 37402 28
29922 37401 37403 28
29923 37401 37404 28
29924 37401 37405 28
29925 37406 37407 28
29926 37406 37408 28
29927 37406 37409 28
29928 37406 37410 28
29929 37411 37412 28
29930 37411 37413 28
29931 37411 37414 28
29932 37411 37415 28
29933 37416 37417 28
29934 37416 37418 28
29935 37416 37419 28
29936 37416 37420 28
29937 37421 37422 28
29938 37421 37423 28
29939 37421 37424 28
29940 37421 37425 28
29941 37426 37427 28
29942 37426 37428 28
29943 37426 37429 28
29944 37426 37430 28
29945 37431 37432 28
29946 37431 37433 28
29947 37431 37434 28
29948 37431 37435 28
29949 37436 37437 28
29950 37436 37438 28
29951 37436 37439 28
29952 37436 37440 28
29953 37441 37442 28
29954 37441 37443 28
29955 37441 37444 28
29956 37441 37445 28
29957 37446 37447 28
29958 37446 37448 28
29959 37446 37449 28
29960 37446 37450 28
29961 37451 37452 28
29962 37451 37453 28
29963 37451 37454 28
29964 37451 37455 28
29965 37456 37457 28
29966 37456 37458 28
29967 37456 37459 28
29968 37456 37460 28
29969 37461 37462 28
29970 37461 37463 28
29971 37461 37464 28
29972 37461 37465 28
29973 37466 37467 28
29974 37466 37468 28
29975 37466 37469 28
29976 37466 37470 28
29977 37471 37472 28
29978 37471 37473 28
29979 37471 37474 28
29980 37471 37475 28
29981 37476 37477 28
29982 37476 37478 28
29983 37476 37479 28
29984 37476 37480 28
29985 37481 37482 28
29986 37481 37483 28
29987 37481 37484 28
29988 37481 37485 28
29989 37486 37487 28
29990 37486 37488 28
29991 37486 37489 28
29992 37486 37490 28
29993 37491 37492 28
29994 37491 37493 28
29995 37491 37494 28
29996 37491 37495 28
29997 37496 37497 28
29998 37496 37498 28
29999 37496 37499 28
30000 37496 37500 28
@<TRIPOS>CRYSIN
130.8997484454662 130.8997484454662 130.8997484454662 90 90 90 1 1
